<?xml version="1.0" encoding="UTF-8"?>

<!-- generated on 2025-03-08 11:41:49 by Eclipse SUMO netconvert Version 1.22.0
<netconvertConfiguration xmlns:xsi="http://www.w3.org/2001/XMLSchema-instance" xsi:noNamespaceSchemaLocation="http://sumo.dlr.de/xsd/netconvertConfiguration.xsd">

    <input>
        <osm-files value="osm_bbox.osm.xml"/>
    </input>

    <output>
        <output-file value="osm.net.xml"/>
    </output>

    <projection>
        <proj.utm value="true"/>
    </projection>

</netconvertConfiguration>
-->

<net version="1.20" junctionCornerDetail="5" limitTurnSpeed="5.50" xmlns:xsi="http://www.w3.org/2001/XMLSchema-instance" xsi:noNamespaceSchemaLocation="http://sumo.dlr.de/xsd/net_file.xsd">

    <location netOffset="-704899.76,-1203816.09" convBoundary="0.00,0.00,7083.72,2748.77" origBoundary="76.874581,10.884047,76.939466,10.908963" projParameter="+proj=utm +zone=43 +ellps=WGS84 +datum=WGS84 +units=m +no_defs"/>

    <type id="highway.footway" priority="1" numLanes="1" speed="2.78" allow="pedestrian" oneway="1" width="2.00"/>
    <type id="highway.path" priority="1" numLanes="1" speed="5.56" allow="pedestrian bicycle" oneway="0" width="2.00"/>
    <type id="highway.residential" priority="3" numLanes="1" speed="13.89" disallow="tram rail_urban rail rail_electric rail_fast ship container cable_car subway aircraft wheelchair scooter drone" oneway="0"/>
    <type id="highway.tertiary" priority="10" numLanes="1" speed="22.22" disallow="tram rail_urban rail rail_electric rail_fast ship container cable_car subway aircraft wheelchair scooter drone" oneway="0"/>
    <type id="highway.unclassified" priority="4" numLanes="1" speed="13.89" disallow="tram rail_urban rail rail_electric rail_fast ship container cable_car subway aircraft wheelchair scooter drone" oneway="0"/>
    <type id="railway.rail" priority="20" numLanes="1" speed="44.44" allow="rail" oneway="1"/>

    <edge id=":10959201954_0" function="internal">
        <lane id=":10959201954_0_0" index="0" disallow="tram rail_urban rail rail_electric rail_fast ship container cable_car subway aircraft wheelchair scooter drone" speed="13.89" length="14.58" shape="2146.95,1526.61 2132.95,1522.53"/>
    </edge>
    <edge id=":10959201954_1" function="internal">
        <lane id=":10959201954_1_0" index="0" disallow="tram rail_urban rail rail_electric rail_fast ship container cable_car subway aircraft wheelchair scooter drone" speed="8.58" length="3.91" shape="2146.95,1526.61 2143.60,1525.09 2143.45,1524.92"/>
    </edge>
    <edge id=":10959201954_2" function="internal">
        <lane id=":10959201954_2_0" index="0" disallow="tram rail_urban rail rail_electric rail_fast ship container cable_car subway aircraft wheelchair scooter drone" speed="3.65" length="1.44" shape="2146.95,1526.61 2146.01,1525.52"/>
    </edge>
    <edge id=":10959201954_9" function="internal">
        <lane id=":10959201954_9_0" index="0" disallow="tram rail_urban rail rail_electric rail_fast ship container cable_car subway aircraft wheelchair scooter drone" speed="8.58" length="10.62" shape="2143.45,1524.92 2141.36,1522.69 2140.24,1519.43 2140.23,1515.31"/>
    </edge>
    <edge id=":10959201954_10" function="internal">
        <lane id=":10959201954_10_0" index="0" disallow="tram rail_urban rail rail_electric rail_fast ship container cable_car subway aircraft wheelchair scooter drone" speed="3.65" length="3.23" shape="2146.01,1525.52 2145.84,1524.64 2146.44,1523.98 2147.81,1523.53"/>
    </edge>
    <edge id=":10959201954_3" function="internal">
        <lane id=":10959201954_3_0" index="0" disallow="tram rail_urban rail rail_electric rail_fast ship container cable_car subway aircraft wheelchair scooter drone" speed="7.19" length="9.93" shape="2143.41,1515.69 2143.40,1518.58 2144.13,1520.85 2145.60,1522.50 2147.81,1523.53"/>
    </edge>
    <edge id=":10959201954_4" function="internal">
        <lane id=":10959201954_4_0" index="0" disallow="tram rail_urban rail rail_electric rail_fast ship container cable_car subway aircraft wheelchair scooter drone" speed="7.72" length="14.90" shape="2143.41,1515.69 2142.32,1519.73 2140.22,1522.22 2137.09,1523.15 2132.95,1522.53"/>
    </edge>
    <edge id=":10959201954_5" function="internal">
        <lane id=":10959201954_5_0" index="0" disallow="tram rail_urban rail rail_electric rail_fast ship container cable_car subway aircraft wheelchair scooter drone" speed="3.65" length="4.67" shape="2143.41,1515.69 2142.47,1516.78 2141.63,1517.09 2140.88,1516.59 2140.23,1515.31"/>
    </edge>
    <edge id=":10959201954_6" function="internal">
        <lane id=":10959201954_6_0" index="0" disallow="tram rail_urban rail rail_electric rail_fast ship container cable_car subway aircraft wheelchair scooter drone" speed="6.16" length="9.05" shape="2133.87,1519.47 2136.39,1519.85 2138.29,1519.28 2139.57,1517.77 2140.23,1515.31"/>
    </edge>
    <edge id=":10959201954_7" function="internal">
        <lane id=":10959201954_7_0" index="0" disallow="tram rail_urban rail rail_electric rail_fast ship container cable_car subway aircraft wheelchair scooter drone" speed="13.89" length="14.52" shape="2133.87,1519.47 2147.81,1523.53"/>
    </edge>
    <edge id=":10959201954_8" function="internal">
        <lane id=":10959201954_8_0" index="0" disallow="tram rail_urban rail rail_electric rail_fast ship container cable_car subway aircraft wheelchair scooter drone" speed="3.65" length="1.44" shape="2133.87,1519.47 2134.79,1520.58"/>
    </edge>
    <edge id=":10959201954_11" function="internal">
        <lane id=":10959201954_11_0" index="0" disallow="tram rail_urban rail rail_electric rail_fast ship container cable_car subway aircraft wheelchair scooter drone" speed="3.65" length="3.23" shape="2134.79,1520.58 2134.94,1521.46 2134.33,1522.11 2132.95,1522.53"/>
    </edge>
    <edge id=":10959201970_0" function="internal">
        <lane id=":10959201970_0_0" index="0" disallow="tram rail_urban rail rail_electric rail_fast ship container cable_car subway aircraft wheelchair scooter drone" speed="3.65" length="4.67" shape="1757.46,1096.67 1758.22,1095.45 1759.01,1095.02 1759.82,1095.40 1760.65,1096.58"/>
    </edge>
    <edge id=":10959201981_0" function="internal">
        <lane id=":10959201981_0_0" index="0" disallow="tram rail_urban rail rail_electric rail_fast ship container cable_car subway aircraft wheelchair scooter drone" speed="3.65" length="4.67" shape="2017.51,814.85 2016.15,814.36 2015.57,813.68 2015.77,812.81 2016.74,811.74"/>
    </edge>
    <edge id=":10959201984_0" function="internal">
        <lane id=":10959201984_0_0" index="0" allow="pedestrian bicycle" speed="2.89" length="2.92" width="2.00" shape="2315.93,1559.08 2315.57,1558.25 2315.63,1557.69 2316.12,1557.41 2317.02,1557.40"/>
    </edge>
    <edge id=":10959201986_0" function="internal">
        <lane id=":10959201986_0_0" index="0" disallow="tram rail_urban rail rail_electric rail_fast ship container cable_car subway aircraft wheelchair scooter drone" speed="13.89" length="8.62" shape="2338.42,1573.11 2329.94,1574.67"/>
    </edge>
    <edge id=":10959201986_1" function="internal">
        <lane id=":10959201986_1_0" index="0" allow="pedestrian bicycle" speed="9.72" length="2.82" width="2.00" shape="2338.42,1573.11 2335.60,1573.07"/>
    </edge>
    <edge id=":10959201986_7" function="internal">
        <lane id=":10959201986_7_0" index="0" allow="pedestrian bicycle" speed="9.72" length="7.72" width="2.00" shape="2335.60,1573.07 2333.86,1571.89 2332.24,1570.06 2329.79,1568.04"/>
    </edge>
    <edge id=":10959201986_2" function="internal">
        <lane id=":10959201986_2_0" index="0" allow="pedestrian bicycle" speed="9.72" length="8.28" width="2.00" shape="2330.83,1566.33 2332.80,1567.87 2334.14,1569.19 2335.58,1569.99 2337.84,1569.96"/>
    </edge>
    <edge id=":10959201986_3" function="internal">
        <lane id=":10959201986_3_0" index="0" allow="pedestrian bicycle" speed="6.25" length="14.20" width="2.00" shape="2330.83,1566.33 2334.63,1569.21 2335.75,1571.56 2334.18,1573.38 2329.94,1574.67"/>
    </edge>
    <edge id=":10959201986_4" function="internal">
        <lane id=":10959201986_4_0" index="0" allow="pedestrian bicycle" speed="2.89" length="2.92" width="2.00" shape="2330.83,1566.33 2331.21,1567.15 2331.16,1567.71 2330.69,1568.00 2329.79,1568.04"/>
    </edge>
    <edge id=":10959201986_5" function="internal">
        <lane id=":10959201986_5_0" index="0" allow="pedestrian bicycle" speed="4.43" length="5.95" width="2.00" shape="2329.36,1571.52 2331.15,1570.98 2331.82,1570.22 2331.36,1569.24 2329.79,1568.04"/>
    </edge>
    <edge id=":10959201986_6" function="internal">
        <lane id=":10959201986_6_0" index="0" disallow="tram rail_urban rail rail_electric rail_fast ship container cable_car subway aircraft wheelchair scooter drone" speed="13.89" length="8.62" shape="2329.36,1571.52 2337.84,1569.96"/>
    </edge>
    <edge id=":10959201987_0" function="internal">
        <lane id=":10959201987_0_0" index="0" disallow="tram rail_urban rail rail_electric rail_fast ship container cable_car subway aircraft wheelchair scooter drone" speed="13.89" length="6.28" shape="2344.78,1572.08 2342.93,1572.05 2341.68,1572.28 2340.43,1572.65 2338.62,1573.07"/>
    </edge>
    <edge id=":10959201987_1" function="internal">
        <lane id=":10959201987_1_0" index="0" allow="pedestrian bicycle" speed="9.72" length="2.42" width="2.00" shape="2344.78,1572.08 2342.43,1571.47"/>
    </edge>
    <edge id=":10959201987_7" function="internal">
        <lane id=":10959201987_7_0" index="0" allow="pedestrian bicycle" speed="9.72" length="6.48" width="2.00" shape="2342.43,1571.47 2341.18,1570.21 2340.15,1568.47 2338.45,1566.39"/>
    </edge>
    <edge id=":10959201987_2" function="internal">
        <lane id=":10959201987_2_0" index="0" allow="pedestrian bicycle" speed="9.54" length="6.79" width="2.00" shape="2339.83,1564.94 2341.18,1566.47 2342.09,1567.66 2343.17,1568.48 2345.02,1568.89"/>
    </edge>
    <edge id=":10959201987_3" function="internal">
        <lane id=":10959201987_3_0" index="0" allow="pedestrian bicycle" speed="6.02" length="11.81" width="2.00" shape="2339.83,1564.94 2342.37,1567.93 2343.02,1570.29 2341.76,1572.00 2338.62,1573.07"/>
    </edge>
    <edge id=":10959201987_4" function="internal">
        <lane id=":10959201987_4_0" index="0" allow="pedestrian bicycle" speed="2.89" length="2.92" width="2.00" shape="2339.83,1564.94 2340.03,1565.82 2339.87,1566.35 2339.34,1566.54 2338.45,1566.39"/>
    </edge>
    <edge id=":10959201987_5" function="internal">
        <lane id=":10959201987_5_0" index="0" allow="pedestrian bicycle" speed="4.34" length="5.10" width="2.00" shape="2338.04,1569.93 2339.36,1569.47 2339.87,1568.72 2339.57,1567.70 2338.45,1566.39"/>
    </edge>
    <edge id=":10959201987_6" function="internal">
        <lane id=":10959201987_6_0" index="0" disallow="tram rail_urban rail rail_electric rail_fast ship container cable_car subway aircraft wheelchair scooter drone" speed="13.89" length="7.10" shape="2338.04,1569.93 2340.10,1569.46 2341.51,1569.07 2342.93,1568.85 2345.02,1568.89"/>
    </edge>
    <edge id=":10959201990_0" function="internal">
        <lane id=":10959201990_0_0" index="0" allow="pedestrian bicycle" speed="2.89" length="2.92" width="2.00" shape="2384.49,1474.55 2385.28,1475.00 2385.56,1475.48 2385.34,1475.99 2384.63,1476.55"/>
    </edge>
    <edge id=":1423798441_0" function="internal">
        <lane id=":1423798441_0_0" index="0" disallow="tram rail_urban rail rail_electric rail_fast ship container cable_car subway aircraft wheelchair scooter drone" speed="18.05" length="0.15" shape="2350.63,1572.52 2350.58,1572.52 2350.55,1572.51 2350.52,1572.51 2350.48,1572.51"/>
    </edge>
    <edge id=":1423798441_1" function="internal">
        <lane id=":1423798441_1_0" index="0" disallow="tram rail_urban rail rail_electric rail_fast ship container cable_car subway aircraft wheelchair scooter drone" speed="18.05" length="0.46" shape="2350.72,1569.31 2350.85,1569.32 2350.94,1569.33 2351.03,1569.35 2351.17,1569.37"/>
    </edge>
    <edge id=":1423798465_0" function="internal">
        <lane id=":1423798465_0_0" index="0" disallow="tram rail_urban rail rail_electric rail_fast ship container cable_car subway aircraft wheelchair scooter drone" speed="13.89" length="6.47" shape="2777.91,1644.95 2777.90,1638.48"/>
    </edge>
    <edge id=":1423798465_1" function="internal">
        <lane id=":1423798465_1_0" index="0" allow="rail rail_electric rail_fast" speed="44.44" length="9.45" shape="2784.18,1641.68 2774.73,1641.85"/>
    </edge>
    <edge id=":1423798465_2" function="internal">
        <lane id=":1423798465_2_0" index="0" disallow="tram rail_urban rail rail_electric rail_fast ship container cable_car subway aircraft wheelchair scooter drone" speed="13.89" length="6.29" shape="2781.10,1638.56 2781.11,1644.85"/>
    </edge>
    <edge id=":1423798471_0" function="internal">
        <lane id=":1423798471_0_0" index="0" disallow="tram rail_urban rail rail_electric rail_fast ship container cable_car subway aircraft wheelchair scooter drone" speed="13.89" length="6.58" shape="2781.18,1647.26 2781.22,1653.84"/>
    </edge>
    <edge id=":1423798471_1" function="internal">
        <lane id=":1423798471_1_0" index="0" allow="rail rail_electric rail_fast" speed="44.44" length="9.56" shape="2774.86,1650.44 2784.41,1650.84"/>
    </edge>
    <edge id=":1423798471_2" function="internal">
        <lane id=":1423798471_2_0" index="0" disallow="tram rail_urban rail rail_electric rail_fast ship container cable_car subway aircraft wheelchair scooter drone" speed="13.89" length="6.44" shape="2778.02,1653.79 2777.98,1647.35"/>
    </edge>
    <edge id=":3190327339_0" function="internal">
        <lane id=":3190327339_0_0" index="0" disallow="tram rail_urban rail rail_electric rail_fast ship container cable_car subway aircraft wheelchair scooter drone" speed="13.89" length="12.33" shape="2587.26,2113.12 2583.91,2113.00 2581.07,2113.14 2578.32,2113.73 2575.22,2114.92"/>
    </edge>
    <edge id=":3190327339_1" function="internal">
        <lane id=":3190327339_1_0" index="0" disallow="tram rail_urban rail rail_electric rail_fast ship container cable_car subway aircraft wheelchair scooter drone" speed="7.79" length="3.92" shape="2587.26,2113.12 2583.42,2112.36"/>
    </edge>
    <edge id=":3190327339_2" function="internal">
        <lane id=":3190327339_2_0" index="0" disallow="tram rail_urban rail rail_electric rail_fast ship container cable_car subway aircraft wheelchair scooter drone" speed="3.65" length="1.44" shape="2587.26,2113.12 2586.10,2112.26"/>
    </edge>
    <edge id=":3190327339_9" function="internal">
        <lane id=":3190327339_9_0" index="0" disallow="tram rail_urban rail rail_electric rail_fast ship container cable_car subway aircraft wheelchair scooter drone" speed="7.79" length="10.79" shape="2583.42,2112.36 2583.23,2112.32 2580.60,2110.42 2579.37,2107.41 2579.53,2103.31"/>
    </edge>
    <edge id=":3190327339_10" function="internal">
        <lane id=":3190327339_10_0" index="0" disallow="tram rail_urban rail rail_electric rail_fast ship container cable_car subway aircraft wheelchair scooter drone" speed="3.65" length="3.23" shape="2586.10,2112.26 2585.75,2111.44 2586.19,2110.66 2587.43,2109.93"/>
    </edge>
    <edge id=":3190327339_3" function="internal">
        <lane id=":3190327339_3_0" index="0" disallow="tram rail_urban rail rail_electric rail_fast ship container cable_car subway aircraft wheelchair scooter drone" speed="6.24" length="9.05" shape="2582.68,2103.89 2582.58,2106.42 2583.33,2108.26 2584.95,2109.43 2587.43,2109.93"/>
    </edge>
    <edge id=":3190327339_4" function="internal">
        <lane id=":3190327339_4_0" index="0" disallow="tram rail_urban rail rail_electric rail_fast ship container cable_car subway aircraft wheelchair scooter drone" speed="10.66" length="13.84" shape="2582.68,2103.89 2581.63,2107.71 2580.04,2110.82 2577.90,2113.22 2575.22,2114.92"/>
    </edge>
    <edge id=":3190327339_5" function="internal">
        <lane id=":3190327339_5_0" index="0" disallow="tram rail_urban rail rail_electric rail_fast ship container cable_car subway aircraft wheelchair scooter drone" speed="3.65" length="4.67" shape="2582.68,2103.89 2581.67,2104.93 2580.81,2105.17 2580.10,2104.63 2579.53,2103.31"/>
    </edge>
    <edge id=":3190327339_6" function="internal">
        <lane id=":3190327339_6_0" index="0" disallow="tram rail_urban rail rail_electric rail_fast ship container cable_car subway aircraft wheelchair scooter drone" speed="9.45" length="10.77" shape="2573.89,2112.01 2575.89,2110.72 2577.50,2108.83 2578.71,2106.36 2579.53,2103.31"/>
    </edge>
    <edge id=":3190327339_7" function="internal">
        <lane id=":3190327339_7_0" index="0" disallow="tram rail_urban rail rail_electric rail_fast ship container cable_car subway aircraft wheelchair scooter drone" speed="13.89" length="13.84" shape="2573.89,2112.01 2577.23,2110.77 2580.50,2110.09 2583.85,2109.85 2587.43,2109.93"/>
    </edge>
    <edge id=":3190327339_8" function="internal">
        <lane id=":3190327339_8_0" index="0" disallow="tram rail_urban rail rail_electric rail_fast ship container cable_car subway aircraft wheelchair scooter drone" speed="3.65" length="1.44" shape="2573.89,2112.01 2575.32,2112.24"/>
    </edge>
    <edge id=":3190327339_11" function="internal">
        <lane id=":3190327339_11_0" index="0" disallow="tram rail_urban rail rail_electric rail_fast ship container cable_car subway aircraft wheelchair scooter drone" speed="3.65" length="3.23" shape="2575.32,2112.24 2576.01,2112.80 2575.98,2113.70 2575.22,2114.92"/>
    </edge>
    <edge id=":3190327341_0" function="internal">
        <lane id=":3190327341_0_0" index="0" disallow="tram rail_urban rail rail_electric rail_fast ship container cable_car subway aircraft wheelchair scooter drone" speed="13.89" length="15.41" shape="2550.83,2148.98 2535.47,2147.72"/>
    </edge>
    <edge id=":3190327341_1" function="internal">
        <lane id=":3190327341_1_0" index="0" disallow="tram rail_urban rail rail_electric rail_fast ship container cable_car subway aircraft wheelchair scooter drone" speed="7.39" length="4.74" shape="2550.83,2148.98 2546.22,2147.89"/>
    </edge>
    <edge id=":3190327341_2" function="internal">
        <lane id=":3190327341_2_0" index="0" disallow="tram rail_urban rail rail_electric rail_fast ship container cable_car subway aircraft wheelchair scooter drone" speed="3.65" length="1.44" shape="2550.83,2148.98 2549.72,2148.06"/>
    </edge>
    <edge id=":3190327341_9" function="internal">
        <lane id=":3190327341_9_0" index="0" disallow="tram rail_urban rail rail_electric rail_fast ship container cable_car subway aircraft wheelchair scooter drone" speed="7.39" length="12.45" shape="2546.22,2147.89 2545.75,2147.78 2543.27,2145.49 2543.39,2142.12 2546.12,2137.67"/>
    </edge>
    <edge id=":3190327341_10" function="internal">
        <lane id=":3190327341_10_0" index="0" disallow="tram rail_urban rail rail_electric rail_fast ship container cable_car subway aircraft wheelchair scooter drone" speed="3.65" length="3.23" shape="2549.72,2148.06 2549.41,2147.22 2549.89,2146.47 2551.16,2145.79"/>
    </edge>
    <edge id=":3190327341_3" function="internal">
        <lane id=":3190327341_3_0" index="0" disallow="tram rail_urban rail rail_electric rail_fast ship container cable_car subway aircraft wheelchair scooter drone" speed="5.62" length="9.30" shape="2548.61,2139.68 2547.13,2142.09 2547.07,2143.91 2548.41,2145.15 2551.16,2145.79"/>
    </edge>
    <edge id=":3190327341_4" function="internal">
        <lane id=":3190327341_4_0" index="0" disallow="tram rail_urban rail rail_electric rail_fast ship container cable_car subway aircraft wheelchair scooter drone" speed="11.59" length="15.94" shape="2548.61,2139.68 2545.27,2143.30 2541.97,2145.86 2538.70,2147.33 2535.47,2147.72"/>
    </edge>
    <edge id=":3190327341_5" function="internal">
        <lane id=":3190327341_5_0" index="0" disallow="tram rail_urban rail rail_electric rail_fast ship container cable_car subway aircraft wheelchair scooter drone" speed="3.65" length="4.67" shape="2548.61,2139.68 2547.23,2140.11 2546.36,2139.92 2545.99,2139.10 2546.12,2137.67"/>
    </edge>
    <edge id=":3190327341_6" function="internal">
        <lane id=":3190327341_6_0" index="0" disallow="tram rail_urban rail rail_electric rail_fast ship container cable_car subway aircraft wheelchair scooter drone" speed="10.49" length="12.96" shape="2535.61,2144.53 2538.07,2144.18 2540.64,2142.92 2543.32,2140.75 2546.12,2137.67"/>
    </edge>
    <edge id=":3190327341_7" function="internal">
        <lane id=":3190327341_7_0" index="0" disallow="tram rail_urban rail rail_electric rail_fast ship container cable_car subway aircraft wheelchair scooter drone" speed="13.89" length="15.60" shape="2535.61,2144.53 2551.16,2145.79"/>
    </edge>
    <edge id=":3190327341_8" function="internal">
        <lane id=":3190327341_8_0" index="0" disallow="tram rail_urban rail rail_electric rail_fast ship container cable_car subway aircraft wheelchair scooter drone" speed="3.65" length="1.44" shape="2535.61,2144.53 2536.78,2145.38"/>
    </edge>
    <edge id=":3190327341_11" function="internal">
        <lane id=":3190327341_11_0" index="0" disallow="tram rail_urban rail rail_electric rail_fast ship container cable_car subway aircraft wheelchair scooter drone" speed="3.65" length="3.23" shape="2536.78,2145.38 2537.14,2146.20 2536.71,2146.98 2535.47,2147.72"/>
    </edge>
    <edge id=":3190327342_0" function="internal">
        <lane id=":3190327342_0_0" index="0" disallow="tram rail_urban rail rail_electric rail_fast ship container cable_car subway aircraft wheelchair scooter drone" speed="13.89" length="16.63" shape="2523.34,2147.19 2519.51,2147.81 2515.64,2149.61 2511.95,2152.01 2508.66,2154.42"/>
    </edge>
    <edge id=":3190327342_1" function="internal">
        <lane id=":3190327342_1_0" index="0" disallow="tram rail_urban rail rail_electric rail_fast ship container cable_car subway aircraft wheelchair scooter drone" speed="13.89" length="17.71" shape="2523.34,2147.19 2505.65,2146.44"/>
    </edge>
    <edge id=":3190327342_2" function="internal">
        <lane id=":3190327342_2_0" index="0" disallow="tram rail_urban rail rail_electric rail_fast ship container cable_car subway aircraft wheelchair scooter drone" speed="3.65" length="1.24" shape="2523.34,2147.19 2522.34,2146.45"/>
    </edge>
    <edge id=":3190327342_9" function="internal">
        <lane id=":3190327342_9_0" index="0" disallow="tram rail_urban rail rail_electric rail_fast ship container cable_car subway aircraft wheelchair scooter drone" speed="3.65" length="3.43" shape="2522.34,2146.45 2522.18,2146.33 2521.81,2145.52 2522.25,2144.73 2523.48,2143.99"/>
    </edge>
    <edge id=":3190327342_3" function="internal">
        <lane id=":3190327342_3_0" index="0" disallow="tram rail_urban rail rail_electric rail_fast ship container cable_car subway aircraft wheelchair scooter drone" speed="13.89" length="17.72" shape="2505.78,2143.24 2523.48,2143.99"/>
    </edge>
    <edge id=":3190327342_4" function="internal">
        <lane id=":3190327342_4_0" index="0" disallow="tram rail_urban rail rail_electric rail_fast ship container cable_car subway aircraft wheelchair scooter drone" speed="7.48" length="20.69" shape="2505.78,2143.24 2512.38,2144.20 2515.07,2146.39 2513.82,2149.79 2508.66,2154.42"/>
    </edge>
    <edge id=":3190327342_5" function="internal">
        <lane id=":3190327342_5_0" index="0" disallow="tram rail_urban rail rail_electric rail_fast ship container cable_car subway aircraft wheelchair scooter drone" speed="3.65" length="4.67" shape="2505.78,2143.24 2506.95,2144.09 2507.31,2144.91 2506.88,2145.69 2505.65,2146.44"/>
    </edge>
    <edge id=":3190327342_6" function="internal">
        <lane id=":3190327342_6_0" index="0" disallow="tram rail_urban rail rail_electric rail_fast ship container cable_car subway aircraft wheelchair scooter drone" speed="5.38" length="9.85" shape="2506.76,2151.84 2509.28,2149.60 2509.93,2147.95 2508.72,2146.90 2505.65,2146.44"/>
    </edge>
    <edge id=":3190327342_7" function="internal">
        <lane id=":3190327342_7_0" index="0" disallow="tram rail_urban rail rail_electric rail_fast ship container cable_car subway aircraft wheelchair scooter drone" speed="13.89" length="18.71" shape="2506.76,2151.84 2510.37,2149.33 2514.76,2146.72 2519.33,2144.70 2523.48,2143.99"/>
    </edge>
    <edge id=":3190327342_8" function="internal">
        <lane id=":3190327342_8_0" index="0" disallow="tram rail_urban rail rail_electric rail_fast ship container cable_car subway aircraft wheelchair scooter drone" speed="3.65" length="1.44" shape="2506.76,2151.84 2508.20,2151.77"/>
    </edge>
    <edge id=":3190327342_10" function="internal">
        <lane id=":3190327342_10_0" index="0" disallow="tram rail_urban rail rail_electric rail_fast ship container cable_car subway aircraft wheelchair scooter drone" speed="3.65" length="3.23" shape="2508.20,2151.77 2509.00,2152.18 2509.15,2153.06 2508.66,2154.42"/>
    </edge>
    <edge id=":3190327343_0" function="internal">
        <lane id=":3190327343_0_0" index="0" disallow="tram rail_urban rail rail_electric rail_fast ship container cable_car subway aircraft wheelchair scooter drone" speed="13.89" length="14.31" shape="2505.45,2146.43 2491.15,2145.85"/>
    </edge>
    <edge id=":3190327343_1" function="internal">
        <lane id=":3190327343_1_0" index="0" disallow="tram rail_urban rail rail_electric rail_fast ship container cable_car subway aircraft wheelchair scooter drone" speed="7.42" length="4.37" shape="2505.45,2146.43 2501.15,2145.61"/>
    </edge>
    <edge id=":3190327343_2" function="internal">
        <lane id=":3190327343_2_0" index="0" disallow="tram rail_urban rail rail_electric rail_fast ship container cable_car subway aircraft wheelchair scooter drone" speed="3.65" length="1.44" shape="2505.45,2146.43 2504.28,2145.58"/>
    </edge>
    <edge id=":3190327343_9" function="internal">
        <lane id=":3190327343_9_0" index="0" disallow="tram rail_urban rail rail_electric rail_fast ship container cable_car subway aircraft wheelchair scooter drone" speed="7.42" length="11.08" shape="2501.15,2145.61 2498.71,2143.59 2498.12,2140.35 2499.38,2135.91"/>
    </edge>
    <edge id=":3190327343_10" function="internal">
        <lane id=":3190327343_10_0" index="0" disallow="tram rail_urban rail rail_electric rail_fast ship container cable_car subway aircraft wheelchair scooter drone" speed="3.65" length="3.23" shape="2504.28,2145.58 2503.92,2144.77 2504.35,2143.98 2505.58,2143.23"/>
    </edge>
    <edge id=":3190327343_3" function="internal">
        <lane id=":3190327343_3_0" index="0" disallow="tram rail_urban rail rail_electric rail_fast ship container cable_car subway aircraft wheelchair scooter drone" speed="5.75" length="8.74" shape="2502.31,2137.19 2501.57,2139.74 2501.87,2141.60 2503.21,2142.77 2505.58,2143.23"/>
    </edge>
    <edge id=":3190327343_4" function="internal">
        <lane id=":3190327343_4_0" index="0" disallow="tram rail_urban rail rail_electric rail_fast ship container cable_car subway aircraft wheelchair scooter drone" speed="9.63" length="15.07" shape="2502.31,2137.19 2500.16,2141.09 2497.58,2143.83 2494.58,2145.42 2491.15,2145.85"/>
    </edge>
    <edge id=":3190327343_5" function="internal">
        <lane id=":3190327343_5_0" index="0" disallow="tram rail_urban rail rail_electric rail_fast ship container cable_car subway aircraft wheelchair scooter drone" speed="3.65" length="4.67" shape="2502.31,2137.19 2501.10,2137.97 2500.21,2138.02 2499.63,2137.33 2499.38,2135.91"/>
    </edge>
    <edge id=":3190327343_6" function="internal">
        <lane id=":3190327343_6_0" index="0" disallow="tram rail_urban rail rail_electric rail_fast ship container cable_car subway aircraft wheelchair scooter drone" speed="8.37" length="11.22" shape="2491.27,2142.66 2493.69,2142.31 2495.85,2141.07 2497.74,2138.94 2499.38,2135.91"/>
    </edge>
    <edge id=":3190327343_7" function="internal">
        <lane id=":3190327343_7_0" index="0" disallow="tram rail_urban rail rail_electric rail_fast ship container cable_car subway aircraft wheelchair scooter drone" speed="13.89" length="14.32" shape="2491.27,2142.66 2505.58,2143.23"/>
    </edge>
    <edge id=":3190327343_8" function="internal">
        <lane id=":3190327343_8_0" index="0" disallow="tram rail_urban rail rail_electric rail_fast ship container cable_car subway aircraft wheelchair scooter drone" speed="3.65" length="1.44" shape="2491.27,2142.66 2492.44,2143.50"/>
    </edge>
    <edge id=":3190327343_11" function="internal">
        <lane id=":3190327343_11_0" index="0" disallow="tram rail_urban rail rail_electric rail_fast ship container cable_car subway aircraft wheelchair scooter drone" speed="3.65" length="3.23" shape="2492.44,2143.50 2492.81,2144.32 2492.38,2145.10 2491.15,2145.85"/>
    </edge>
    <edge id=":3840257449_0" function="internal">
        <lane id=":3840257449_0_0" index="0" disallow="tram rail_urban rail rail_electric rail_fast ship container cable_car subway aircraft wheelchair scooter drone" speed="13.89" length="14.88" shape="2731.32,2620.64 2730.98,2624.36 2730.54,2628.04 2730.01,2631.71 2729.39,2635.39"/>
    </edge>
    <edge id=":3840257449_1" function="internal">
        <lane id=":3840257449_1_0" index="0" disallow="tram rail_urban rail rail_electric rail_fast ship container cable_car subway aircraft wheelchair scooter drone" speed="8.02" length="14.44" shape="2731.32,2620.64 2730.45,2624.46 2728.53,2627.06 2725.56,2628.45 2721.56,2628.62"/>
    </edge>
    <edge id=":3840257449_2" function="internal">