<?xml version="1.0" encoding="UTF-8"?>

<!-- generated on 2025-03-08 21:38:09 by Eclipse SUMO duarouter Version 1.22.0
<duarouterConfiguration xmlns:xsi="http://www.w3.org/2001/XMLSchema-instance" xsi:noNamespaceSchemaLocation="http://sumo.dlr.de/xsd/duarouterConfiguration.xsd">

    <input>
        <net-file value="osm.net.xml"/>
        <route-files value="osm.passenger.trips.xml"/>
    </input>

    <output>
        <output-file value="routes.rou.xml"/>
    </output>

</duarouterConfiguration>
-->

<routes xmlns:xsi="http://www.w3.org/2001/XMLSchema-instance" xsi:noNamespaceSchemaLocation="http://sumo.dlr.de/xsd/routes_file.xsd">
    <vType id="veh_passenger" vClass="passenger"/>
    <vehicle id="veh0" type="veh_passenger" depart="0.00" departLane="best">
        <route edges="380702784#1 -380702784#1 -380702784#0 -380702783#1 -380702783#0 -128964700#5 -128964700#4 -128964700#3 -128964700#2 -128964700#1"/>
    </vehicle>
    <vehicle id="veh1" type="veh_passenger" depart="11.00" departLane="best">
        <route edges="-528938979#0 -528938978#4 -528938978#3 -528938978#2 -528938978#1 528938983 -528938315#1 -528938315#0 85242112#0 85242112#1 380702794#0 380702794#1 528938318 -528938318"/>
    </vehicle>
    <vehicle id="veh2" type="veh_passenger" depart="22.00" departLane="best">
        <route edges="528938320#3 528938320#4 -528938315#0 85242112#0 85242112#1 380702794#0 380702794#1 380702794#2"/>
    </vehicle>
    <vehicle id="veh3" type="veh_passenger" depart="33.00" departLane="best">
        <route edges="724691557#2 -724691557#2 -724691557#1 -724691557#0 85242110#1 128964701#0 128964701#1 128964701#2 -85242112#4 -85242112#3 -85242112#2 380702794#0 380702794#1 528938318 -313120155#1 -313120155#0"/>
    </vehicle>
    <vehicle id="veh4" type="veh_passenger" depart="44.00" departLane="best">
        <route edges="-724691560#0 724691560#0 -724691557#2 -724691557#1 -724691557#0 85242110#1 128964701#0 128964701#1 128964701#2 -85242112#4 -85242112#3 -85242112#2 380702794#0 380702794#1 528938318 -313120155#1 -313120155#0 128964700#10 -128964700#10"/>
    </vehicle>
    <vehicle id="veh5" type="veh_passenger" depart="55.00" departLane="best">
        <route edges="-528938315#2 -528938315#1 -528938315#0 -128964700#2 -128964700#1 -128964700#0 -128964701#3 -128964701#2 -128964701#1 -128964701#0 85242110#2 1179956460#0 1179956460#1 1179956460#2 1179956460#3"/>
    </vehicle>
    <vehicle id="veh6" type="veh_passenger" depart="66.00" departLane="best">
        <route edges="-528938315#2 -528938315#1 -528938315#0 128964700#3 128964700#4 128964700#5 128964700#6 128964700#7 128964700#8 128964700#9 313120155#0 313120155#1"/>
    </vehicle>
    <vehicle id="veh7" type="veh_passenger" depart="76.99" departLane="best">
        <route edges="546394551 85242112#3 85242112#4 -128964701#2 -128964701#1 -128964701#0 85242110#2 1179956460#0 1179956460#1 1179956460#2 -1179956460#2"/>
    </vehicle>
    <vehicle id="veh8" type="veh_passenger" depart="87.99" departLane="best">
        <route edges="546394550#1 -546394550#1 528944019#0 528944019#1 -528938320#0 -128964701#3 -85242112#4 380829428"/>
    </vehicle>
    <vehicle id="veh9" type="veh_passenger" depart="98.99" departLane="best">
        <route edges="85242110#1 128964701#0 128964701#1 128964701#2 128964701#3 528938320#0 528938320#1 528938320#2 528938320#3 528938978#0 528938978#1 528938978#2 -528938982 528938979#1 546394555 546394556 546394557 -546394561"/>
    </vehicle>
    <vehicle id="veh10" type="veh_passenger" depart="109.99" departLane="best">
        <route edges="546394568#1 -546394568#1 -546394568#0 128964700#5 128964700#6 128964700#7 85242111#0 85242111#1 85242111#2 380702781#0"/>
    </vehicle>
    <vehicle id="veh11" type="veh_passenger" depart="120.99" departLane="best">
        <route edges="546394551 85242112#3 85242112#4 128964701#3 528938320#0 528938320#1 528938320#2"/>
    </vehicle>
    <vehicle id="veh12" type="veh_passenger" depart="131.99" departLane="best">
        <route edges="128964700#3 128964700#4 128964700#5 128964700#6 128964700#7 85242111#0 85242111#1 85242111#2"/>
    </vehicle>
    <vehicle id="veh13" type="veh_passenger" depart="142.99" departLane="best">
        <route edges="-724691557#0 85242110#1 128964701#0 128964701#1 128964701#2 128964701#3 128964700#0 128964700#1 128964700#2 128964700#3 128964700#4 128964700#5 128964700#6"/>
    </vehicle>
    <vehicle id="veh14" type="veh_passenger" depart="153.99" departLane="best">
        <route edges="546394555 546394556 546394557 -546394561 -546394560 -546394559 -528938979#1 528938982 -528938978#2 -528938978#1 528938983 -528938315#1 -528938315#0 128964700#3 128964700#4 128964700#5 380702783#0"/>
    </vehicle>
    <vehicle id="veh15" type="veh_passenger" depart="164.99" departLane="best">
        <route edges="546394571#1 -546394568#0 -128964700#4 -128964700#3 -128964700#2 -128964700#1 -128964700#0 -128964701#3 128964701#3"/>
    </vehicle>
    <vehicle id="veh16" type="veh_passenger" depart="175.99" departLane="best">
        <route edges="-313120155#3 -313120155#2 -528938318 -380702794#1 -380702794#0 -85242112#1 -85242112#0 528938315#0 528938315#1 -528938983 528938978#1 528938978#2 -528938982 -528938979#0"/>
    </vehicle>
    <vehicle id="veh17" type="veh_passenger" depart="186.99" departLane="best">
        <route edges="380702784#1 -380702784#1 -380702784#0 -380702783#1 -380702783#0 -128964700#5 -128964700#4 -128964700#3 85242112#0 85242112#1 85242112#2 85242112#3 380829428 -546394579"/>
    </vehicle>
    <vehicle id="veh18" type="veh_passenger" depart="197.99" departLane="best">
        <route edges="-555268264 -128964700#8 -128964700#7 -128964700#6 -128964700#5 -128964700#4 380702785#0 380702785#1 -528938315#2 -528938315#1 -528938315#0"/>
    </vehicle>
    <vehicle id="veh19" type="veh_passenger" depart="208.99" departLane="best">
        <route edges="-528938978#2 -528938978#1 -528938978#0 -528938320#3 -528938320#2 -528938320#1 -528938320#0 -128964701#3 -128964701#2 -128964701#1 -128964701#0 -85242110#1 724691557#0 724691557#1 724691557#2 724691557#3 -724691561#1 -724691561#0 724691561#0"/>
    </vehicle>
    <vehicle id="veh20" type="veh_passenger" depart="219.98" departLane="best">
        <route edges="380702785#1 -528938315#2 -528938315#1 -528938315#0 128964700#3 128964700#4 128964700#5 128964700#6 128964700#7 85242111#0 85242111#1 85242111#2 380702781#0 380702781#1"/>
    </vehicle>
    <vehicle id="veh21" type="veh_passenger" depart="230.98" departLane="best">
        <route edges="-380702788#2 -380702788#1 -380702788#0 -85242111#1 -85242111#0 -128964700#7 -128964700#6 -128964700#5 -128964700#4 -128964700#3 -128964700#2 -128964700#1 -128964700#0 528938320#0 528938320#1"/>
    </vehicle>
    <vehicle id="veh22" type="veh_passenger" depart="241.98" departLane="best">
        <route edges="-380702788#1 -380702788#0 -85242111#1 -555808665 -128964700#10 313120155#0 313120155#1 -528938318 -380702794#1 -380702794#0 85242112#2 85242112#3 85242112#4 -128964701#2 -128964701#1 -128964701#0 -85242110#1 724691557#0 -724691557#0"/>
    </vehicle>
    <vehicle id="veh23" type="veh_passenger" depart="252.98" departLane="best">
        <route edges="85242112#1 -85242112#1 -85242112#0 128964700#3 380702785#0"/>
    </vehicle>
    <vehicle id="veh24" type="veh_passenger" depart="263.98" departLane="best">
        <route edges="546394568#0 -546394568#0 -128964700#4 -128964700#3 528938315#0 528938315#1 -528938983 528938978#1 528938978#2 -528938982 528938979#1"/>
    </vehicle>
    <vehicle id="veh25" type="veh_passenger" depart="274.98" departLane="best">
        <route edges="-528938320#0 128964700#0 128964700#1 128964700#2 128964700#3 128964700#4 128964700#5 128964700#6 128964700#7 128964700#8 128964700#9 128964700#10 128964700#11 -128964700#11"/>
    </vehicle>
    <vehicle id="veh26" type="veh_passenger" depart="285.98" departLane="best">
        <route edges="-546394553#0 546394551 -85242112#2 -85242112#1 -85242112#0 528938315#0 528938315#1 -528938983 528938978#1 528938978#2 -528938982 -528938979#0 -528938978#4 -528938978#3 -528938978#2"/>
    </vehicle>
    <vehicle id="veh27" type="veh_passenger" depart="296.98" departLane="best">
        <route edges="-528938315#0 -128964700#2 -128964700#1 -128964700#0 -128964701#3 -128964701#2 -128964701#1 -128964701#0 -85242110#1 724691557#0 724691557#1 724691557#2 724691557#3 724691561#2"/>
    </vehicle>
    <vehicle id="veh28" type="veh_passenger" depart="307.98" departLane="best">
        <route edges="380702788#0 -380702788#0 -85242111#1 -555808665 -128964700#10 313120155#0 313120155#1 -528938318 -380702794#1 -380702794#0 85242112#2 85242112#3 85242112#4 -128964701#2 -128964701#1 -128964701#0 -85242110#1 724691557#0 724691557#1 724691557#2 724691557#3 724691557#4 -724691557#4 -724691557#3"/>
    </vehicle>
    <vehicle id="veh29" type="veh_passenger" depart="318.98" departLane="best">
        <route edges="724691559#0 -724691557#1 -724691557#0 85242110#1 85242110#2 1179956460#0 1179956460#1 1179956460#2 -1179956460#2 -1179956460#1 -1179956460#0 -85242110#2"/>
    </vehicle>
    <vehicle id="veh30" type="veh_passenger" depart="329.98" departLane="best">
        <route edges="128964700#8 -128964700#8 -128964700#7 -128964700#6 -128964700#5 -128964700#4 -128964700#3 528938315#0 528938315#1 -528938983 528938978#1 528938978#2 -528938982 -528938979#0 -528938978#4 -528938978#3 -528938978#2 -528938978#1"/>
    </vehicle>
    <vehicle id="veh31" type="veh_passenger" depart="340.98" departLane="best">
        <route edges="313120155#0 313120155#1 -528938318 -380702794#1 -380702794#0 85242112#2 85242112#3 85242112#4 -128964701#2 -128964701#1 -128964701#0 -85242110#1 724691557#0 724691557#1 724691557#2 724691557#3"/>
    </vehicle>
    <vehicle id="veh32" type="veh_passenger" depart="351.98" departLane="best">
        <route edges="-724691557#4 -724691557#3 -724691557#2 -724691557#1 -724691557#0 85242110#1 128964701#0 128964701#1 128964701#2 128964701#3 528938320#0 528938320#1 528938320#2 528938320#3 528938320#4 528938315#1 528938315#2 -528938315#2"/>
    </vehicle>
    <vehicle id="veh33" type="veh_passenger" depart="362.98" departLane="best">
        <route edges="85242112#4 -128964701#2 -128964701#1 -128964701#0 85242110#2 1179956460#0 1179956460#1 1179956460#2 1179956461"/>
    </vehicle>
    <vehicle id="veh34" type="veh_passenger" depart="373.97" departLane="best">
        <route edges="-313120155#1 -313120155#0 -128964700#9 -128964700#8 -128964700#7 -128964700#6 -128964700#5 -128964700#4"/>
    </vehicle>
    <vehicle id="veh35" type="veh_passenger" depart="384.97" departLane="best">
        <route edges="-380702781#0 -85242111#2 -85242111#1 -85242111#0 -128964700#7 -128964700#6 380702783#0 380702783#1 380702783#2"/>
    </vehicle>
    <vehicle id="veh36" type="veh_passenger" depart="395.97" departLane="best">
        <route edges="528944019#0 528944019#1 -528938320#0 -128964701#3 -128964701#2 -128964701#1 -128964701#0 -85242110#1 724691557#0 724691557#1 724691557#2 -724691560#0"/>
    </vehicle>
    <vehicle id="veh37" type="veh_passenger" depart="406.97" departLane="best">
        <route edges="-128964700#8 -128964700#7 -128964700#6 -128964700#5 -128964700#4 -128964700#3 -128964700#2 -128964700#1 -128964700#0 -128964701#3 -128964701#2 -128964701#1 -128964701#0 -85242110#1 724691557#0 -724691557#0"/>
    </vehicle>
    <vehicle id="veh38" type="veh_passenger" depart="417.97" departLane="best">
        <route edges="85242112#4 -85242112#4 -85242112#3 -85242112#2 380702794#0 380702794#1 528938318 -313120155#1 -313120155#0 128964700#10 128964700#11"/>
    </vehicle>
    <vehicle id="veh39" type="veh_passenger" depart="428.97" departLane="best">
        <route edges="85242111#1 -85242111#1 -85242111#0 -128964700#7 -128964700#6 -128964700#5 546394568#0 -546394571#1 -546394571#0 546394571#0 546394571#1"/>
    </vehicle>
    <vehicle id="veh40" type="veh_passenger" depart="439.97" departLane="best">
        <route edges="-1179956460#3 -1179956460#2 -1179956460#1 -1179956460#0 -85242110#2 128964701#0 128964701#1 128964701#2 128964701#3 528938320#0"/>
    </vehicle>
    <vehicle id="veh41" type="veh_passenger" depart="450.97" departLane="best">
        <route edges="-380702781#0 -85242111#2 -85242111#1 -555808665 -128964700#10 313120155#0 313120155#1 -528938318 -380702794#1 -380702794#0 85242112#2 85242112#3 85242112#4 -128964701#2 -128964701#1 -128964701#0 -85242110#1 724691557#0 724691557#1 724691557#2 724691557#3 -724691561#1"/>
    </vehicle>
    <vehicle id="veh42" type="veh_passenger" depart="461.97" departLane="best">
        <route edges="555268264 -555268264 -128964700#8 -128964700#7 -128964700#6 -128964700#5 -128964700#4 -128964700#3 528938315#0 528938315#1 -528938983 528938978#1 528938978#2 -528938982 -528938979#0 -528938978#4 -528938978#3 -528938978#2 -528938978#1"/>
    </vehicle>
    <vehicle id="veh43" type="veh_passenger" depart="472.97" departLane="best">
        <route edges="1179956460#2 -1179956460#2 -1179956460#1 -1179956460#0 -85242110#2 128964701#0 128964701#1 128964701#2 -85242112#4 -85242112#3 -85242112#2 380702794#0 380702794#1 -380702794#1"/>
    </vehicle>
    <vehicle id="veh44" type="veh_passenger" depart="483.97" departLane="best">
        <route edges="724691558#1 -724691558#1 -724691557#0 85242110#1 128964701#0 128964701#1 128964701#2 -85242112#4 -85242112#3 -85242112#2 380702794#0 380702794#1 528938318 -313120155#1 -313120155#0 555268263"/>
    </vehicle>
    <vehicle id="veh45" type="veh_passenger" depart="494.97" departLane="best">
        <route edges="-528944019#1 -528944019#0 528944019#0 528944019#1 -528938320#0 128964700#0 128964700#1 128964700#2 128964700#3 128964700#4 128964700#5 380702783#0 380702783#1 380702784#0 380702784#1"/>
    </vehicle>
    <vehicle id="veh46" type="veh_passenger" depart="505.97" departLane="best">
        <route edges="380702781#1 -380702781#1 -380702781#0 -85242111#2 -85242111#1 -85242111#0 -128964700#7 -128964700#6 -128964700#5 -128964700#4 380702785#0 380702785#1 -380702785#1"/>
    </vehicle>
    <vehicle id="veh47" type="veh_passenger" depart="516.96" departLane="best">
        <route edges="528938978#2 -528938982 -528938979#0 -528938978#4 -528938978#3 -528938978#2 -528938978#1 528938983 -528938315#1 -528938315#0 128964700#3"/>
    </vehicle>
    <vehicle id="veh48" type="veh_passenger" depart="527.96" departLane="best">
        <route edges="528938979#1 -528938979#1 528938982 -528938978#2 -528938978#1 528938983 -528938315#1 -528938315#0 128964700#3 128964700#4 128964700#5 128964700#6 128964700#7 128964700#8 128964700#9 128964700#10 128964700#11"/>
    </vehicle>
    <vehicle id="veh49" type="veh_passenger" depart="538.96" departLane="best">
        <route edges="-1179956460#0 -85242110#2 128964701#0 128964701#1 128964701#2 -85242112#4 -85242112#3 -85242112#2 380702794#0 380702794#1 528938318 -313120155#1 -313120155#0 -546394554"/>
    </vehicle>
    <vehicle id="veh50" type="veh_passenger" depart="549.96" departLane="best">
        <route edges="555808665 -85242111#0 -128964700#7 -128964700#6 -128964700#5 -128964700#4 -128964700#3 528938315#0 528938315#1 -528938983 528938978#1 528938978#2 -528938982 528938979#1 546394555"/>
    </vehicle>
    <vehicle id="veh51" type="veh_passenger" depart="560.96" departLane="best">
        <route edges="-546394550#1 528944019#0 528944019#1 -528938320#0 128964700#0 128964700#1 128964700#2 128964700#3 128964700#4 128964700#5 128964700#6 -128964700#6"/>
    </vehicle>
    <vehicle id="veh52" type="veh_passenger" depart="571.96" departLane="best">
        <route edges="555268264 -555268264 128964700#9 313120155#0 313120155#1 -528938318 -380702794#1 -380702794#0 85242112#2 85242112#3 85242112#4 -128964701#2 -128964701#1 -128964701#0 -85242110#1 724691557#0 724691557#1 724691557#2 724691557#3 -724691561#1 724691568"/>
    </vehicle>
    <vehicle id="veh53" type="veh_passenger" depart="582.96" departLane="best">
        <route edges="-128964700#9 -128964700#8 -128964700#7 -128964700#6 -128964700#5 -128964700#4 -128964700#3 528938315#0 528938315#1 -528938983 528938978#1"/>
    </vehicle>
    <vehicle id="veh54" type="veh_passenger" depart="593.96" departLane="best">
        <route edges="528938978#3 528938978#4 528938979#0 528938982 -528938978#2 -528938978#1 528938983 -528938315#1 -528938315#0 128964700#3 128964700#4 128964700#5 380702783#0 380702783#1 -380702783#1"/>
    </vehicle>
    <vehicle id="veh55" type="veh_passenger" depart="604.96" departLane="best">
        <route edges="-85242111#3 -85242111#2 -85242111#1 -85242111#0 -128964700#7 -128964700#6 128964700#6"/>
    </vehicle>
    <vehicle id="veh56" type="veh_passenger" depart="615.96" departLane="best">
        <route edges="-528938978#1 528938983 -528938315#1 -528938315#0 128964700#3 128964700#4 128964700#5 128964700#6 128964700#7 128964700#8 128964700#9 555268263"/>
    </vehicle>
    <vehicle id="veh57" type="veh_passenger" depart="626.96" departLane="best">
        <route edges="-724691560#0 724691560#0 -724691557#2 -724691557#1 -724691557#0 85242110#1 128964701#0 128964701#1 128964701#2 128964701#3 528938320#0 528938320#1 528938320#2 528938320#3 528938978#0 528938983 -528938315#1"/>
    </vehicle>
    <vehicle id="veh58" type="veh_passenger" depart="637.96" departLane="best">
        <route edges="85242112#3 -85242112#3 -85242112#2 -85242112#1 -85242112#0 528938315#0 528938315#1 528938315#2 -380702785#1 380702786"/>
    </vehicle>
    <vehicle id="veh59" type="veh_passenger" depart="648.96" departLane="best">
        <route edges="-380702782 -380702781#0 -85242111#2 -85242111#1 -555808665 -128964700#10 313120155#0 313120155#1 -528938318"/>
    </vehicle>
    <vehicle id="veh60" type="veh_passenger" depart="659.95" departLane="best">
        <route edges="-546394568#0 128964700#5 128964700#6 128964700#7 128964700#8 128964700#9 313120155#0 313120155#1"/>
    </vehicle>
    <vehicle id="veh61" type="veh_passenger" depart="670.95" departLane="best">
        <route edges="-128964700#9 -128964700#8 -128964700#7 -128964700#6 380702783#0 380702783#1 380702784#0"/>
    </vehicle>
    <vehicle id="veh62" type="veh_passenger" depart="681.95" departLane="best">
        <route edges="-528938320#2 -528938320#1 -528938320#0 -128964701#3 -85242112#4 -85242112#3 -85242112#2 380702794#0"/>
    </vehicle>
    <vehicle id="veh63" type="veh_passenger" depart="692.95" departLane="best">
        <route edges="-528938315#1 -528938315#0 128964700#3 128964700#4 128964700#5 380702783#0 380702783#1 380702783#2 -380702783#2"/>
    </vehicle>
    <vehicle id="veh64" type="veh_passenger" depart="703.95" departLane="best">
        <route edges="724691561#0 724691561#1 -724691557#3 -724691557#2 -724691557#1 -724691557#0 85242110#1 128964701#0"/>
    </vehicle>
    <vehicle id="veh65" type="veh_passenger" depart="714.95" departLane="best">
        <route edges="-85242111#2 -85242111#1 -85242111#0 -128964700#7 -128964700#6 -128964700#5 -128964700#4 -128964700#3 528938315#0 -528938320#4 528938978#0 528938983"/>
    </vehicle>
    <vehicle id="veh66" type="veh_passenger" depart="725.95" departLane="best">
        <route edges="-313120155#2 -528938318 -380702794#1 -380702794#0 85242112#2 85242112#3 85242112#4 -128964701#2 -128964701#1 -128964701#0 -85242110#1 724691557#0 724691557#1 724691557#2 724691557#3 -724691561#1 -724691561#0"/>
    </vehicle>
    <vehicle id="veh67" type="veh_passenger" depart="736.95" departLane="best">
        <route edges="-724691560#1 -724691557#2 -724691557#1 -724691557#0 85242110#1 128964701#0 128964701#1 128964701#2 -85242112#4 -85242112#3 -85242112#2 380702794#0 380702794#1 528938318 -313120155#1 -313120155#0 128964700#10 555808665 85242111#1 -85242111#1"/>
    </vehicle>
    <vehicle id="veh68" type="veh_passenger" depart="747.95" departLane="best">
        <route edges="528938320#1 528938320#2 528938320#3 528938320#4 -528938315#0 85242112#0 85242112#1 380702794#0 380702794#1"/>
    </vehicle>
    <vehicle id="veh69" type="veh_passenger" depart="758.95" departLane="best">
        <route edges="85242112#0 85242112#1 380702794#0 380702794#1 528938318 313120155#2 -313120155#2"/>
    </vehicle>
    <vehicle id="veh70" type="veh_passenger" depart="769.95" departLane="best">
        <route edges="-724691558#0 724691558#0 -724691557#0 85242110#1 128964701#0 128964701#1 128964701#2 128964701#3 128964700#0 128964700#1 128964700#2 128964700#3 128964700#4 546394568#0 -546394568#0"/>
    </vehicle>
    <vehicle id="veh71" type="veh_passenger" depart="780.95" departLane="best">
        <route edges="546394571#1 -546394568#0 -128964700#4 380702785#0 380702786 -528938322#1 -528938322#0"/>
    </vehicle>
    <vehicle id="veh72" type="veh_passenger" depart="791.95" departLane="best">
        <route edges="-380829423 -313120155#4 -313120155#3 -313120155#2 -528938318 -380702794#1 -380702794#0 85242112#2 85242112#3 85242112#4 -128964701#2 -128964701#1 -128964701#0 -85242110#1 -85242110#0"/>
    </vehicle>
    <vehicle id="veh73" type="veh_passenger" depart="802.94" departLane="best">
        <route edges="-724691560#0 724691560#0 -724691557#2 -724691557#1 -724691557#0 85242110#1 128964701#0 128964701#1 128964701#2 128964701#3 528938320#0 528938320#1 528938320#2 528938320#3 528938978#0 528938978#1 528938978#2 -528938982 -528938979#0"/>
    </vehicle>
    <vehicle id="veh74" type="veh_passenger" depart="813.94" departLane="best">
        <route edges="-528938322#0 -528938315#2 -528938315#1 -528938315#0 -128964700#2 -128964700#1 -128964700#0 -128964701#3 -128964701#2 -128964701#1 -128964701#0 -85242110#1 724691557#0 724691557#1 724691559#1"/>
    </vehicle>
    <vehicle id="veh75" type="veh_passenger" depart="824.94" departLane="best">
        <route edges="-724691568 724691561#1 -724691557#3 -724691557#2 -724691557#1 -724691557#0 85242110#1 128964701#0 128964701#1 128964701#2 128964701#3 128964700#0 128964700#1 128964700#2 128964700#3 128964700#4 546394568#0 -546394571#1 -546394571#0 546394571#0 546394571#1"/>
    </vehicle>
    <vehicle id="veh76" type="veh_passenger" depart="835.94" departLane="best">
        <route edges="85242112#4 128964701#3 528938320#0 528938320#1 528938320#2 528938320#3 528938978#0 528938978#1 528938978#2 -528938982 528938979#1 546394555 546394556 546394557 546394558"/>
    </vehicle>
    <vehicle id="veh77" type="veh_passenger" depart="846.94" departLane="best">
        <route edges="85242111#1 -85242111#1 -555808665 -128964700#10 313120155#0 313120155#1 -528938318 -380702794#1 -380702794#0 85242112#2 85242112#3 85242112#4 -128964701#2 -128964701#1 -128964701#0 -85242110#1 724691557#0 724691557#1 724691557#2 -724691560#0 724691560#0"/>
    </vehicle>
    <vehicle id="veh78" type="veh_passenger" depart="857.94" departLane="best">
        <route edges="546394568#1 -546394568#1 -546394568#0 128964700#5 128964700#6 128964700#7 85242111#0 85242111#1 380702788#0 -380702788#2 -380702788#1"/>
    </vehicle>
    <vehicle id="veh79" type="veh_passenger" depart="868.94" departLane="best">
        <route edges="-85242112#1 -85242112#0 528938315#0 528938315#1 -528938315#1"/>
    </vehicle>
    <vehicle id="veh80" type="veh_passenger" depart="879.94" departLane="best">
        <route edges="-724691558#0 724691558#0 -724691557#0 85242110#1 128964701#0 128964701#1 128964701#2 -85242112#4 -85242112#3 -85242112#2 380702794#0 380702794#1 528938318 -313120155#1 -313120155#0 -128964700#9 -128964700#8 -128964700#7"/>
    </vehicle>
    <vehicle id="veh81" type="veh_passenger" depart="890.94" departLane="best">
        <route edges="-724691557#0 85242110#1 128964701#0 128964701#1 128964701#2 128964701#3 128964700#0 128964700#1 128964700#2 85242112#0"/>
    </vehicle>
    <vehicle id="veh82" type="veh_passenger" depart="901.94" departLane="best">
        <route edges="-85242110#2 -85242110#1 724691557#0 724691557#1 724691557#2 -724691560#0"/>
    </vehicle>
    <vehicle id="veh83" type="veh_passenger" depart="912.94" departLane="best">
        <route edges="85242110#1 128964701#0 128964701#1 128964701#2 -85242112#4 -85242112#3 85242112#3"/>
    </vehicle>
    <vehicle id="veh84" type="veh_passenger" depart="923.94" departLane="best">
        <route edges="-380702786 380702785#1 -528938315#2 -528938315#1 -528938320#4 -528938320#3 -528938320#2 -528938320#1 -528944019#1 -528944019#0"/>
    </vehicle>
    <vehicle id="veh85" type="veh_passenger" depart="934.94" departLane="best">
        <route edges="85242111#1 -85242111#1 -555808665 -128964700#10 313120155#0 313120155#1 -528938318 -380702794#1 -380702794#0 85242112#2 85242112#3 85242112#4 128964701#3"/>
    </vehicle>
    <vehicle id="veh86" type="veh_passenger" depart="945.94" departLane="best">
        <route edges="128964700#4 -128964700#4 380702785#0 380702785#1 528938322#0 528938322#1"/>
    </vehicle>
    <vehicle id="veh87" type="veh_passenger" depart="956.93" departLane="best">
        <route edges="1179956460#2 -1179956460#2 -1179956460#1 -1179956460#0 -85242110#2 128964701#0 128964701#1 128964701#2 128964701#3 128964700#0 128964700#1 128964700#2 128964700#3 128964700#4 128964700#5 380702783#0 -546394570 546394570"/>
    </vehicle>
    <vehicle id="veh88" type="veh_passenger" depart="967.93" departLane="best">
        <route edges="-380702786 380702785#1 -528938315#2 -528938315#1 -528938315#0 -128964700#2 -128964700#1 -128964700#0 -128964701#3 -128964701#2 -128964701#1 -128964701#0 85242110#2"/>
    </vehicle>
    <vehicle id="veh89" type="veh_passenger" depart="978.93" departLane="best">
        <route edges="-528938320#2 -528938320#1 -528938320#0 128964700#0 128964700#1 128964700#2 128964700#3 128964700#4 128964700#5 128964700#6 128964700#7 85242111#0 85242111#1 85242111#2 380702781#0 380702782 -380702782"/>
    </vehicle>
    <vehicle id="veh90" type="veh_passenger" depart="989.93" departLane="best">
        <route edges="724691557#1 -724691557#1 -724691557#0 85242110#1 128964701#0 128964701#1 128964701#2 128964701#3 128964700#0 128964700#1 128964700#2 528938315#0 -528938320#4"/>
    </vehicle>
    <vehicle id="veh91" type="veh_passenger" depart="1000.93" departLane="best">
        <route edges="313120155#2 546394554 -128964700#9 -128964700#8 -128964700#7 -128964700#6 380702783#0"/>
    </vehicle>
    <vehicle id="veh92" type="veh_passenger" depart="1011.93" departLane="best">
        <route edges="-724691560#0 724691560#0 -724691557#2 -724691557#1 -724691557#0 85242110#1 128964701#0 128964701#1 128964701#2 -85242112#4 -85242112#3 -85242112#2 380702794#0 380702794#1 528938318 -313120155#1 -313120155#0 313120155#0"/>
    </vehicle>
    <vehicle id="veh93" type="veh_passenger" depart="1022.93" departLane="best">
        <route edges="128964700#10 -128964700#10 313120155#0 313120155#1 -528938318 -380702794#1 -380702794#0 85242112#2 85242112#3 85242112#4 -128964701#2 -128964701#1 -128964701#0 -85242110#1 724691557#0 724691557#1 724691557#2 724691557#3 -724691561#1 -724691561#0 724691561#0"/>
    </vehicle>
    <vehicle id="veh94" type="veh_passenger" depart="1033.93" departLane="best">
        <route edges="-380829432 -128964700#6 -128964700#5 -128964700#4 -128964700#3 528938315#0 528938315#1 528938315#2"/>
    </vehicle>
    <vehicle id="veh95" type="veh_passenger" depart="1044.93" departLane="best">
        <route edges="-528938320#2 -528938320#1 -528938320#0 -128964701#3 -128964701#2 -128964701#1 -128964701#0 -85242110#1 724691557#0 724691557#1 724691557#2 724691557#3 724691557#4 -724691557#4 -724691557#3"/>
    </vehicle>
    <vehicle id="veh96" type="veh_passenger" depart="1055.93" departLane="best">
        <route edges="380702794#1 -380702794#1 -380702794#0 85242112#2 85242112#3 85242112#4 128964701#3 528938320#0 -528944019#1"/>
    </vehicle>
    <vehicle id="veh97" type="veh_passenger" depart="1066.93" departLane="best">
        <route edges="-546394553#0 546394551 -85242112#2 -85242112#1 -85242112#0 528938315#0 528938315#1 528938315#2 528938322#0 528938322#1"/>
    </vehicle>
    <vehicle id="veh98" type="veh_passenger" depart="1077.93" departLane="best">
        <route edges="-128964701#0 128964701#0 128964701#1 128964701#2 128964701#3 528938320#0 528938320#1 528938320#2 528938320#3 528938978#0 528938983 -528938315#1"/>
    </vehicle>
    <vehicle id="veh99" type="veh_passenger" depart="1088.93" departLane="best">
        <route edges="-528938978#1 -528938978#0 -528938320#3 -528938320#2 -528938320#1 -528938320#0 -128964701#3 -128964701#2 -128964701#1 -128964701#0 -85242110#1 724691557#0 724691557#1 724691557#2 724691557#3 -724691561#1 -724691561#0 724691561#0"/>
    </vehicle>
    <vehicle id="veh100" type="veh_passenger" depart="1099.92" departLane="best">
        <route edges="380702781#1 -380702781#1 -380702781#0 -85242111#2 -85242111#1 -555808665 -128964700#10 313120155#0 313120155#1 -528938318 -380702794#1 -380702795 85242112#1"/>
    </vehicle>
    <vehicle id="veh101" type="veh_passenger" depart="1110.92" departLane="best">
        <route edges="380702788#0 -380702788#0 -85242111#1 -555808665 -128964700#10 313120155#0 313120155#1 -528938318 -380702794#1 -380702794#0 85242112#2 85242112#3 85242112#4 -128964701#2 -128964701#1 -128964701#0 85242110#2 1179956460#0 1179956460#1 1179956460#2 -1179956460#2"/>
    </vehicle>
    <vehicle id="veh102" type="veh_passenger" depart="1121.92" departLane="best">
        <route edges="546394553#0 546394553#1 -546394552 546394551 85242112#3 85242112#4 128964701#3 528938320#0 -528944019#1"/>
    </vehicle>
    <vehicle id="veh103" type="veh_passenger" depart="1132.92" departLane="best">
        <route edges="380702788#2 -380702788#0 -85242111#1 -555808665 -128964700#10 313120155#0 313120155#1 -528938318 -380702794#1 -380702794#0 85242112#2 85242112#3 85242112#4 -128964701#2 -128964701#1 -128964701#0 -85242110#1 724691557#0 724691557#1 724691557#2 724691557#3 -724691561#1 724691561#1"/>
    </vehicle>
    <vehicle id="veh104" type="veh_passenger" depart="1143.92" departLane="best">