<?xml version="1.0" encoding="UTF-8"?>

<!-- generated on 2025-04-02 19:03:40 by Eclipse SUMO netedit Version 1.12.0
<configuration xmlns:xsi="http://www.w3.org/2001/XMLSchema-instance" xsi:noNamespaceSchemaLocation="http://sumo.dlr.de/xsd/netconvertConfiguration.xsd">

    <input>
        <sumo-net-file value="C:\Users\ankoo\Downloads\CVS\AmritaMap.net.xml"/>
    </input>

    <output>
        <output-file value="C:\Users\ankoo\Downloads\CVS\AmritaMap.net.xml"/>
        <output.street-names value="true"/>
    </output>

    <processing>
        <geometry.min-radius.fix.railways value="false"/>
        <geometry.max-grade.fix value="false"/>
        <offset.disable-normalization value="true"/>
        <lefthand value="true"/>
    </processing>

    <junctions>
        <no-turnarounds value="true"/>
        <junctions.corner-detail value="5"/>
        <junctions.limit-turn-speed value="5.5"/>
        <rectangular-lane-cut value="false"/>
    </junctions>

    <pedestrian>
        <walkingareas value="false"/>
    </pedestrian>

    <netedit>
        <route-files value="C:\Users\ankoo\Downloads\CVS\AmritaMap.rou.xml"/>
    </netedit>

    <report>
        <aggregate-warnings value="5"/>
    </report>

</configuration>
-->

<net version="1.9" junctionCornerDetail="5" lefthand="true" limitTurnSpeed="5.50" xmlns:xsi="http://www.w3.org/2001/XMLSchema-instance" xsi:noNamespaceSchemaLocation="http://sumo.dlr.de/xsd/net_file.xsd">

    <location netOffset="-704899.76,-1203816.09" convBoundary="0.00,0.00,7083.72,2748.77" origBoundary="76.874581,10.884047,76.939466,10.908963" projParameter="+proj=utm +zone=43 +ellps=WGS84 +datum=WGS84 +units=m +no_defs"/>

    <type id="highway.bridleway" priority="1" numLanes="1" speed="2.78" allow="pedestrian" oneway="1" width="2.00"/>
    <type id="highway.bus_guideway" priority="1" numLanes="1" speed="27.78" allow="bus" oneway="1"/>
    <type id="highway.cycleway" priority="1" numLanes="1" speed="8.33" allow="bicycle" oneway="0" width="1.00"/>
    <type id="highway.footway" priority="1" numLanes="1" speed="2.78" allow="pedestrian" oneway="1" width="2.00"/>
    <type id="highway.ford" priority="1" numLanes="1" speed="2.78" allow="army" oneway="0"/>
    <type id="highway.living_street" priority="2" numLanes="1" speed="2.78" disallow="tram rail_urban rail rail_electric rail_fast ship" oneway="0"/>
    <type id="highway.motorway" priority="14" numLanes="2" speed="39.44" allow="private emergency authority army vip passenger hov taxi bus coach delivery truck trailer motorcycle evehicle custom1 custom2" oneway="1"/>
    <type id="highway.motorway_link" priority="9" numLanes="1" speed="22.22" allow="private emergency authority army vip passenger hov taxi bus coach delivery truck trailer motorcycle evehicle custom1 custom2" oneway="1"/>
    <type id="highway.path" priority="1" numLanes="1" speed="2.78" allow="pedestrian bicycle" oneway="0" width="2.00"/>
    <type id="highway.pedestrian" priority="1" numLanes="1" speed="2.78" allow="pedestrian" oneway="1" width="2.00"/>
    <type id="highway.primary" priority="12" numLanes="2" speed="27.78" disallow="tram rail_urban rail rail_electric rail_fast ship" oneway="0"/>
    <type id="highway.primary_link" priority="7" numLanes="1" speed="22.22" disallow="tram rail_urban rail rail_electric rail_fast ship" oneway="0"/>
    <type id="highway.raceway" priority="15" numLanes="2" speed="83.33" allow="vip" oneway="0"/>
    <type id="highway.residential" priority="3" numLanes="1" speed="13.89" disallow="tram rail_urban rail rail_electric rail_fast ship" oneway="0"/>
    <type id="highway.secondary" priority="11" numLanes="1" speed="27.78" disallow="tram rail_urban rail rail_electric rail_fast ship" oneway="0"/>
    <type id="highway.secondary_link" priority="6" numLanes="1" speed="22.22" disallow="tram rail_urban rail rail_electric rail_fast ship" oneway="0"/>
    <type id="highway.service" priority="1" numLanes="1" speed="5.56" allow="pedestrian delivery bicycle" oneway="0"/>
    <type id="highway.stairs" priority="1" numLanes="1" speed="1.39" allow="pedestrian" oneway="1" width="2.00"/>
    <type id="highway.step" priority="1" numLanes="1" speed="1.39" allow="pedestrian" oneway="1" width="2.00"/>
    <type id="highway.steps" priority="1" numLanes="1" speed="1.39" allow="pedestrian" oneway="1" width="2.00"/>
    <type id="highway.tertiary" priority="10" numLanes="1" speed="22.22" disallow="tram rail_urban rail rail_electric rail_fast ship" oneway="0"/>
    <type id="highway.tertiary_link" priority="5" numLanes="1" speed="22.22" disallow="tram rail_urban rail rail_electric rail_fast ship" oneway="0"/>
    <type id="highway.track" priority="1" numLanes="1" speed="5.56" allow="pedestrian motorcycle moped bicycle" oneway="0"/>
    <type id="highway.trunk" priority="13" numLanes="2" speed="27.78" disallow="pedestrian bicycle tram rail_urban rail rail_electric rail_fast ship" oneway="0"/>
    <type id="highway.trunk_link" priority="8" numLanes="1" speed="22.22" disallow="pedestrian bicycle tram rail_urban rail rail_electric rail_fast ship" oneway="0"/>
    <type id="highway.unclassified" priority="4" numLanes="1" speed="13.89" disallow="tram rail_urban rail rail_electric rail_fast ship" oneway="0"/>
    <type id="highway.unsurfaced" priority="1" numLanes="1" speed="8.33" disallow="tram rail_urban rail rail_electric rail_fast ship" oneway="0"/>
    <type id="railway.highspeed" priority="21" numLanes="1" speed="69.44" allow="rail_fast" oneway="1"/>
    <type id="railway.light_rail" priority="19" numLanes="1" speed="27.78" allow="rail_urban" oneway="1"/>
    <type id="railway.preserved" priority="16" numLanes="1" speed="27.78" allow="rail" oneway="1"/>
    <type id="railway.rail" priority="20" numLanes="1" speed="44.44" allow="rail" oneway="1"/>
    <type id="railway.subway" priority="18" numLanes="1" speed="27.78" allow="rail_urban" oneway="1"/>
    <type id="railway.tram" priority="17" numLanes="1" speed="13.89" allow="tram" oneway="1"/>

    <edge id=":10959201954_0" function="internal">
        <lane id=":10959201954_0_0" index="0" disallow="tram rail_urban rail rail_electric rail_fast ship" speed="6.16" length="9.05" shape="2140.23,1515.30 2139.57,1517.76 2138.29,1519.28 2136.39,1519.84 2133.87,1519.46"/>
    </edge>
    <edge id=":10959201954_1" function="internal">
        <lane id=":10959201954_1_0" index="0" disallow="tram rail_urban rail rail_electric rail_fast ship" speed="8.58" length="14.53" shape="2140.23,1515.30 2140.24,1519.43 2141.36,1522.69 2143.60,1525.08 2146.95,1526.61"/>
    </edge>
    <edge id=":10959201954_2" function="internal">
        <lane id=":10959201954_2_0" index="0" disallow="tram rail_urban rail rail_electric rail_fast ship" speed="3.65" length="4.67" shape="2140.23,1515.30 2140.88,1516.59 2141.63,1517.08 2142.47,1516.78 2143.41,1515.68"/>
    </edge>
    <edge id=":10959201954_3" function="internal">
        <lane id=":10959201954_3_0" index="0" disallow="tram rail_urban rail rail_electric rail_fast ship" speed="7.19" length="9.93" shape="2147.81,1523.53 2145.60,1522.50 2144.13,1520.84 2143.40,1518.57 2143.41,1515.68"/>
    </edge>
    <edge id=":10959201954_4" function="internal">
        <lane id=":10959201954_4_0" index="0" disallow="tram rail_urban rail rail_electric rail_fast ship" speed="13.89" length="14.52" shape="2147.81,1523.53 2133.87,1519.46"/>
    </edge>
    <edge id=":10959201954_5" function="internal">
        <lane id=":10959201954_5_0" index="0" disallow="tram rail_urban rail rail_electric rail_fast ship" speed="3.65" length="1.44" shape="2147.81,1523.53 2146.44,1523.98"/>
    </edge>
    <edge id=":10959201954_9" function="internal">
        <lane id=":10959201954_9_0" index="0" disallow="tram rail_urban rail rail_electric rail_fast ship" speed="3.65" length="3.23" shape="2146.44,1523.98 2145.84,1524.64 2146.01,1525.52 2146.95,1526.61"/>
    </edge>
    <edge id=":10959201954_6" function="internal">
        <lane id=":10959201954_6_0" index="0" disallow="tram rail_urban rail rail_electric rail_fast ship" speed="13.89" length="14.58" shape="2132.95,1522.53 2146.95,1526.61"/>
    </edge>
    <edge id=":10959201954_7" function="internal">
        <lane id=":10959201954_7_0" index="0" disallow="tram rail_urban rail rail_electric rail_fast ship" speed="7.72" length="4.31" shape="2132.95,1522.53 2137.09,1523.15 2137.21,1523.12"/>
    </edge>
    <edge id=":10959201954_8" function="internal">
        <lane id=":10959201954_8_0" index="0" disallow="tram rail_urban rail rail_electric rail_fast ship" speed="3.65" length="1.44" shape="2132.95,1522.53 2134.33,1522.11"/>
    </edge>
    <edge id=":10959201954_10" function="internal">
        <lane id=":10959201954_10_0" index="0" disallow="tram rail_urban rail rail_electric rail_fast ship" speed="7.72" length="10.59" shape="2137.21,1523.12 2140.22,1522.22 2142.32,1519.73 2143.41,1515.68"/>
    </edge>
    <edge id=":10959201954_11" function="internal">
        <lane id=":10959201954_11_0" index="0" disallow="tram rail_urban rail rail_electric rail_fast ship" speed="3.65" length="3.23" shape="2134.33,1522.11 2134.94,1521.46 2134.79,1520.57 2133.87,1519.46"/>
    </edge>
    <edge id=":10959201970_0" function="internal">
        <lane id=":10959201970_0_0" index="0" disallow="tram rail_urban rail rail_electric rail_fast ship" speed="3.65" length="4.67" shape="1760.65,1096.58 1759.82,1095.40 1759.01,1095.02 1758.22,1095.44 1757.45,1096.66"/>
    </edge>
    <edge id=":10959201981_0" function="internal">
        <lane id=":10959201981_0_0" index="0" disallow="tram rail_urban rail rail_electric rail_fast ship" speed="3.65" length="4.67" shape="2016.74,811.74 2015.76,812.80 2015.57,813.67 2016.15,814.35 2017.50,814.84"/>
    </edge>
    <edge id=":10959201982_0" function="internal">
        <lane id=":10959201982_0_0" index="0" disallow="tram rail_urban rail rail_electric rail_fast ship" speed="13.89" length="7.04" shape="2168.40,1307.47 2167.00,1314.37"/>
    </edge>
    <edge id=":10959201982_1" function="internal">
        <lane id=":10959201982_1_0" index="0" allow="pedestrian bicycle" speed="6.31" length="2.53" width="2.00" shape="2168.40,1307.47 2168.37,1309.72 2168.51,1309.97"/>
    </edge>
    <edge id=":10959201982_7" function="internal">
        <lane id=":10959201982_7_0" index="0" allow="pedestrian bicycle" speed="6.31" length="6.77" width="2.00" shape="2168.51,1309.97 2169.31,1311.39 2171.23,1312.48 2174.11,1312.98"/>
    </edge>
    <edge id=":10959201982_2" function="internal">
        <lane id=":10959201982_2_0" index="0" allow="pedestrian bicycle" speed="4.52" length="4.65" shape="2174.24,1310.99 2172.85,1310.73 2171.94,1310.16 2171.50,1309.29 2171.53,1308.11"/>
    </edge>
    <edge id=":10959201982_3" function="internal">
        <lane id=":10959201982_3_0" index="0" allow="pedestrian bicycle" speed="6.62" length="8.74" shape="2174.24,1310.99 2171.36,1311.04 2169.19,1311.63 2167.74,1312.74 2167.00,1314.37"/>
    </edge>
    <edge id=":10959201982_4" function="internal">
        <lane id=":10959201982_4_0" index="0" allow="pedestrian bicycle" speed="2.78" length="2.92" width="2.00" shape="2174.24,1310.99 2173.46,1311.44 2173.18,1311.92 2173.40,1312.44 2174.11,1312.98"/>
    </edge>
    <edge id=":10959201982_5" function="internal">
        <lane id=":10959201982_5_0" index="0" allow="pedestrian bicycle" speed="5.23" length="4.90" width="2.00" shape="2170.14,1315.00 2170.56,1314.04 2171.36,1313.38 2172.54,1313.02 2174.11,1312.98"/>
    </edge>
    <edge id=":10959201982_6" function="internal">
        <lane id=":10959201982_6_0" index="0" disallow="tram rail_urban rail rail_electric rail_fast ship" speed="13.89" length="7.04" shape="2170.14,1315.00 2171.53,1308.11"/>
    </edge>
    <edge id=":10959201983_0" function="internal">
        <lane id=":10959201983_0_0" index="0" allow="pedestrian bicycle" speed="2.78" length="2.92" width="2.00" shape="2258.78,1318.29 2259.56,1317.84 2259.84,1317.35 2259.62,1316.84 2258.90,1316.29"/>
    </edge>
    <edge id=":10959201984_0" function="internal">
        <lane id=":10959201984_0_0" index="0" allow="pedestrian bicycle" speed="2.78" length="2.92" width="2.00" shape="2317.02,1557.40 2316.11,1557.41 2315.63,1557.69 2315.57,1558.25 2315.92,1559.08"/>
    </edge>
    <edge id=":10959201990_0" function="internal">
        <lane id=":10959201990_0_0" index="0" allow="pedestrian bicycle" speed="2.78" length="2.92" width="2.00" shape="2384.63,1476.55 2385.34,1476.00 2385.56,1475.48 2385.27,1475.00 2384.49,1474.55"/>
    </edge>
    <edge id=":1423798441_0" function="internal">
        <lane id=":1423798441_0_0" index="0" disallow="tram rail_urban rail rail_electric rail_fast ship" speed="18.05" length="0.46" shape="2351.17,1569.37 2351.04,1569.35 2350.94,1569.33 2350.85,1569.32 2350.72,1569.31"/>
    </edge>
    <edge id=":1423798441_1" function="internal">
        <lane id=":1423798441_1_0" index="0" disallow="tram rail_urban rail rail_electric rail_fast ship" speed="18.05" length="0.15" shape="2350.48,1572.50 2350.52,1572.51 2350.55,1572.51 2350.59,1572.52 2350.63,1572.52"/>
    </edge>
    <edge id=":3190327339_0" function="internal">
        <lane id=":3190327339_0_0" index="0" disallow="tram rail_urban rail rail_electric rail_fast ship" speed="9.45" length="10.77" shape="2579.53,2103.31 2578.71,2106.37 2577.50,2108.84 2575.89,2110.72 2573.89,2112.02"/>
    </edge>
    <edge id=":3190327339_1" function="internal">
        <lane id=":3190327339_1_0" index="0" disallow="tram rail_urban rail rail_electric rail_fast ship" speed="7.79" length="14.71" shape="2579.53,2103.31 2579.37,2107.42 2580.60,2110.42 2583.23,2112.32 2587.26,2113.13"/>
    </edge>
    <edge id=":3190327339_2" function="internal">
        <lane id=":3190327339_2_0" index="0" disallow="tram rail_urban rail rail_electric rail_fast ship" speed="3.65" length="4.67" shape="2579.53,2103.31 2580.10,2104.64 2580.81,2105.18 2581.67,2104.93 2582.68,2103.89"/>
    </edge>
    <edge id=":3190327339_3" function="internal">
        <lane id=":3190327339_3_0" index="0" disallow="tram rail_urban rail rail_electric rail_fast ship" speed="6.24" length="9.05" shape="2587.43,2109.93 2584.95,2109.44 2583.33,2108.27 2582.58,2106.42 2582.68,2103.89"/>
    </edge>
    <edge id=":3190327339_4" function="internal">
        <lane id=":3190327339_4_0" index="0" disallow="tram rail_urban rail rail_electric rail_fast ship" speed="13.89" length="13.84" shape="2587.43,2109.93 2583.85,2109.85 2580.49,2110.09 2577.22,2110.78 2573.89,2112.02"/>
    </edge>
    <edge id=":3190327339_5" function="internal">
        <lane id=":3190327339_5_0" index="0" disallow="tram rail_urban rail rail_electric rail_fast ship" speed="3.65" length="1.44" shape="2587.43,2109.93 2586.19,2110.66"/>
    </edge>
    <edge id=":3190327339_9" function="internal">
        <lane id=":3190327339_9_0" index="0" disallow="tram rail_urban rail rail_electric rail_fast ship" speed="3.65" length="3.23" shape="2586.19,2110.66 2585.75,2111.44 2586.10,2112.26 2587.26,2113.13"/>
    </edge>
    <edge id=":3190327339_6" function="internal">
        <lane id=":3190327339_6_0" index="0" disallow="tram rail_urban rail rail_electric rail_fast ship" speed="13.89" length="12.33" shape="2575.22,2114.93 2578.32,2113.73 2581.07,2113.15 2583.91,2113.00 2587.26,2113.13"/>
    </edge>
    <edge id=":3190327339_7" function="internal">
        <lane id=":3190327339_7_0" index="0" disallow="tram rail_urban rail rail_electric rail_fast ship" speed="10.66" length="3.18" shape="2575.22,2114.93 2577.90,2113.23"/>
    </edge>
    <edge id=":3190327339_8" function="internal">
        <lane id=":3190327339_8_0" index="0" disallow="tram rail_urban rail rail_electric rail_fast ship" speed="3.65" length="1.44" shape="2575.22,2114.93 2575.98,2113.70"/>
    </edge>
    <edge id=":3190327339_10" function="internal">
        <lane id=":3190327339_10_0" index="0" disallow="tram rail_urban rail rail_electric rail_fast ship" speed="10.66" length="10.67" shape="2577.90,2113.23 2580.04,2110.82 2581.63,2107.71 2582.68,2103.89"/>
    </edge>
    <edge id=":3190327339_11" function="internal">
        <lane id=":3190327339_11_0" index="0" disallow="tram rail_urban rail rail_electric rail_fast ship" speed="3.65" length="3.23" shape="2575.98,2113.70 2576.01,2112.81 2575.32,2112.25 2573.89,2112.02"/>
    </edge>
    <edge id=":3190327341_0" function="internal">
        <lane id=":3190327341_0_0" index="0" disallow="tram rail_urban rail rail_electric rail_fast ship" speed="10.48" length="12.95" shape="2546.12,2137.67 2543.33,2140.75 2540.65,2142.92 2538.08,2144.18 2535.62,2144.53"/>
    </edge>
    <edge id=":3190327341_1" function="internal">
        <lane id=":3190327341_1_0" index="0" disallow="tram rail_urban rail rail_electric rail_fast ship" speed="7.39" length="17.19" shape="2546.12,2137.67 2543.39,2142.13 2543.27,2145.50 2545.75,2147.78 2550.84,2148.98"/>
    </edge>
    <edge id=":3190327341_2" function="internal">
        <lane id=":3190327341_2_0" index="0" disallow="tram rail_urban rail rail_electric rail_fast ship" speed="3.65" length="4.67" shape="2546.12,2137.67 2545.99,2139.11 2546.36,2139.92 2547.24,2140.11 2548.61,2139.68"/>
    </edge>
    <edge id=":3190327341_3" function="internal">
        <lane id=":3190327341_3_0" index="0" disallow="tram rail_urban rail rail_electric rail_fast ship" speed="5.62" length="9.30" shape="2551.17,2145.80 2548.41,2145.15 2547.07,2143.91 2547.14,2142.09 2548.61,2139.68"/>
    </edge>
    <edge id=":3190327341_4" function="internal">
        <lane id=":3190327341_4_0" index="0" disallow="tram rail_urban rail rail_electric rail_fast ship" speed="13.89" length="15.60" shape="2551.17,2145.80 2535.62,2144.53"/>
    </edge>
    <edge id=":3190327341_5" function="internal">
        <lane id=":3190327341_5_0" index="0" disallow="tram rail_urban rail rail_electric rail_fast ship" speed="3.65" length="1.44" shape="2551.17,2145.80 2549.89,2146.47"/>
    </edge>
    <edge id=":3190327341_9" function="internal">
        <lane id=":3190327341_9_0" index="0" disallow="tram rail_urban rail rail_electric rail_fast ship" speed="3.65" length="3.23" shape="2549.89,2146.47 2549.41,2147.23 2549.73,2148.06 2550.84,2148.98"/>
    </edge>
    <edge id=":3190327341_6" function="internal">
        <lane id=":3190327341_6_0" index="0" disallow="tram rail_urban rail rail_electric rail_fast ship" speed="13.89" length="15.42" shape="2535.47,2147.73 2550.84,2148.98"/>
    </edge>
    <edge id=":3190327341_7" function="internal">
        <lane id=":3190327341_7_0" index="0" disallow="tram rail_urban rail rail_electric rail_fast ship" speed="11.59" length="3.25" shape="2535.47,2147.73 2538.70,2147.33"/>
    </edge>
    <edge id=":3190327341_8" function="internal">
        <lane id=":3190327341_8_0" index="0" disallow="tram rail_urban rail rail_electric rail_fast ship" speed="3.65" length="1.44" shape="2535.47,2147.73 2536.71,2146.98"/>
    </edge>
    <edge id=":3190327341_10" function="internal">
        <lane id=":3190327341_10_0" index="0" disallow="tram rail_urban rail rail_electric rail_fast ship" speed="11.59" length="12.69" shape="2538.70,2147.33 2541.97,2145.86 2545.27,2143.31 2548.61,2139.68"/>
    </edge>
    <edge id=":3190327341_11" function="internal">
        <lane id=":3190327341_11_0" index="0" disallow="tram rail_urban rail rail_electric rail_fast ship" speed="3.65" length="3.23" shape="2536.71,2146.98 2537.14,2146.20 2536.78,2145.38 2535.62,2144.53"/>
    </edge>
    <edge id=":3840257449_0" function="internal">
        <lane id=":3840257449_0_0" index="0" disallow="tram rail_urban rail rail_electric rail_fast ship" speed="6.53" length="9.21" shape="2728.13,2620.39 2727.57,2622.81 2726.34,2624.46 2724.44,2625.33 2721.86,2625.43"/>
    </edge>
    <edge id=":3840257449_1" function="internal">
        <lane id=":3840257449_1_0" index="0" disallow="tram rail_urban rail rail_electric rail_fast ship" speed="13.89" length="14.56" shape="2728.13,2620.39 2727.79,2624.05 2727.37,2627.63 2726.86,2631.19 2726.24,2634.82"/>
    </edge>
    <edge id=":3840257449_2" function="internal">
        <lane id=":3840257449_2_0" index="0" disallow="tram rail_urban rail rail_electric rail_fast ship" speed="3.65" length="4.67" shape="2728.13,2620.39 2728.83,2621.65 2729.60,2622.11 2730.43,2621.78 2731.32,2620.64"/>
    </edge>
    <edge id=":3840257449_3" function="internal">
        <lane id=":3840257449_3_0" index="0" disallow="tram rail_urban rail rail_electric rail_fast ship" speed="13.89" length="14.88" shape="2729.39,2635.39 2730.01,2631.71 2730.54,2628.04 2730.98,2624.36 2731.32,2620.64"/>
    </edge>
    <edge id=":3840257449_4" function="internal">
        <lane id=":3840257449_4_0" index="0" disallow="tram rail_urban rail rail_electric rail_fast ship" speed="7.86" length="14.52" shape="2729.39,2635.39 2729.54,2631.37 2728.33,2628.37 2725.77,2626.39 2721.86,2625.43"/>
    </edge>
    <edge id=":3840257449_5" function="internal">
        <lane id=":3840257449_5_0" index="0" disallow="tram rail_urban rail rail_electric rail_fast ship" speed="3.65" length="4.67" shape="2729.39,2635.39 2728.82,2634.07 2728.10,2633.53 2727.24,2633.78 2726.24,2634.82"/>
    </edge>
    <edge id=":3840257449_6" function="internal">
        <lane id=":3840257449_6_0" index="0" disallow="tram rail_urban rail rail_electric rail_fast ship" speed="6.33" length="9.04" shape="2721.55,2628.62 2723.99,2629.21 2725.58,2630.45 2726.33,2632.32 2726.24,2634.82"/>
    </edge>
    <edge id=":3840257449_7" function="internal">
        <lane id=":3840257449_7_0" index="0" disallow="tram rail_urban rail rail_electric rail_fast ship" speed="8.02" length="14.44" shape="2721.55,2628.62 2725.56,2628.45 2728.53,2627.07 2730.45,2624.46 2731.32,2620.64"/>
    </edge>
    <edge id=":3840257449_8" function="internal">
        <lane id=":3840257449_8_0" index="0" disallow="tram rail_urban rail rail_electric rail_fast ship" speed="3.65" length="4.67" shape="2721.55,2628.62 2722.83,2627.94 2723.30,2627.18 2722.98,2626.35 2721.86,2625.43"/>
    </edge>
    <edge id=":3840257451_0" function="internal">
        <lane id=":3840257451_0_0" index="0" disallow="tram rail_urban rail rail_electric rail_fast ship" speed="3.65" length="4.67" shape="2697.54,2748.31 2697.96,2749.69 2698.61,2750.30 2699.49,2750.15 2700.60,2749.23"/>
    </edge>
    <edge id=":3840257454_0" function="internal">
        <lane id=":3840257454_0_0" index="0" disallow="tram rail_urban rail rail_electric rail_fast ship" speed="7.53" length="9.78" shape="2547.55,2505.81 2546.40,2507.92 2544.71,2509.38 2542.47,2510.17 2539.70,2510.29"/>
    </edge>
    <edge id=":3840257454_1" function="internal">
        <lane id=":3840257454_1_0" index="0" disallow="tram rail_urban rail rail_electric rail_fast ship" speed="13.89" length="14.04" shape="2547.55,2505.81 2546.44,2509.23 2545.61,2512.55 2545.01,2515.91 2544.58,2519.49"/>
    </edge>
    <edge id=":3840257454_2" function="internal">
        <lane id=":3840257454_2_0" index="0" disallow="tram rail_urban rail rail_electric rail_fast ship" speed="3.65" length="1.44" shape="2547.55,2505.81 2547.90,2507.21"/>
    </edge>
    <edge id=":3840257454_9" function="internal">
        <lane id=":3840257454_9_0" index="0" disallow="tram rail_urban rail rail_electric rail_fast ship" speed="3.65" length="3.23" shape="2547.90,2507.21 2548.51,2507.85 2549.40,2507.75 2550.56,2506.89"/>
    </edge>
    <edge id=":3840257454_3" function="internal">
        <lane id=":3840257454_3_0" index="0" disallow="tram rail_urban rail rail_electric rail_fast ship" speed="13.89" length="13.25" shape="2547.76,2519.80 2548.16,2516.35 2548.71,2513.24 2549.48,2510.19 2550.56,2506.89"/>
    </edge>
    <edge id=":3840257454_4" function="internal">
        <lane id=":3840257454_4_0" index="0" disallow="tram rail_urban rail rail_electric rail_fast ship" speed="7.95" length="3.94" shape="2547.76,2519.80 2547.58,2515.87"/>
    </edge>
    <edge id=":3840257454_5" function="internal">
        <lane id=":3840257454_5_0" index="0" disallow="tram rail_urban rail rail_electric rail_fast ship" speed="3.65" length="1.44" shape="2547.76,2519.80 2547.08,2518.53"/>
    </edge>
    <edge id=":3840257454_10" function="internal">
        <lane id=":3840257454_10_0" index="0" disallow="tram rail_urban rail rail_electric rail_fast ship" speed="7.95" length="10.37" shape="2547.58,2515.87 2546.18,2512.97 2543.56,2511.11 2539.70,2510.29"/>
    </edge>
    <edge id=":3840257454_11" function="internal">
        <lane id=":3840257454_11_0" index="0" disallow="tram rail_urban rail rail_electric rail_fast ship" speed="3.65" length="3.23" shape="2547.08,2518.53 2546.32,2518.05 2545.49,2518.37 2544.58,2519.49"/>
    </edge>
    <edge id=":3840257454_6" function="internal">
        <lane id=":3840257454_6_0" index="0" disallow="tram rail_urban rail rail_electric rail_fast ship" speed="6.44" length="9.03" shape="2539.49,2513.49 2541.92,2514.00 2543.58,2515.18 2544.46,2517.01 2544.58,2519.49"/>
    </edge>
    <edge id=":3840257454_7" function="internal">
        <lane id=":3840257454_7_0" index="0" disallow="tram rail_urban rail rail_electric rail_fast ship" speed="8.88" length="13.95" shape="2539.49,2513.49 2543.36,2513.29 2546.50,2512.12 2548.90,2509.99 2550.56,2506.89"/>
    </edge>
    <edge id=":3840257454_8" function="internal">
        <lane id=":3840257454_8_0" index="0" disallow="tram rail_urban rail rail_electric rail_fast ship" speed="3.65" length="4.67" shape="2539.49,2513.49 2540.74,2512.77 2541.19,2512.00 2540.85,2511.17 2539.70,2510.29"/>
    </edge>
    <edge id=":3840258359_0" function="internal">
        <lane id=":3840258359_0_0" index="0" disallow="tram rail_urban rail rail_electric rail_fast ship" speed="3.65" length="4.67" shape="2416.27,2445.84 2415.17,2444.91 2414.29,2444.76 2413.63,2445.37 2413.21,2446.74"/>
    </edge>
    <edge id=":3840258360_0" function="internal">
        <lane id=":3840258360_0_0" index="0" disallow="tram rail_urban rail rail_electric rail_fast ship" speed="13.89" length="13.77" shape="2940.42,2203.03 2936.87,2202.97 2933.55,2202.70 2930.25,2202.24 2926.74,2201.62"/>
    </edge>
    <edge id=":3840258360_1" function="internal">
        <lane id=":3840258360_1_0" index="0" disallow="tram rail_urban rail rail_electric rail_fast ship" speed="8.82" length="14.30" shape="2940.42,2203.03 2936.57,2203.58 2933.57,2205.10 2931.40,2207.61 2930.07,2211.10"/>
    </edge>
    <edge id=":3840258360_2" function="internal">
        <lane id=":3840258360_2_0" index="0" disallow="tram rail_urban rail rail_electric rail_fast ship" speed="3.65" length="4.67" shape="2940.42,2203.03 2939.23,2203.85 2938.84,2204.65 2939.25,2205.45 2940.46,2206.23"/>
    </edge>
    <edge id=":3840258360_3" function="internal">
        <lane id=":3840258360_3_0" index="0" disallow="tram rail_urban rail rail_electric rail_fast ship" speed="7.56" length="10.29" shape="2933.12,2212.15 2934.07,2209.59 2935.62,2207.75 2937.75,2206.63 2940.46,2206.23"/>
    </edge>
    <edge id=":3840258360_4" function="internal">
        <lane id=":3840258360_4_0" index="0" disallow="tram rail_urban rail rail_electric rail_fast ship" speed="7.89" length="14.15" shape="2933.12,2212.15 2933.48,2208.14 2932.54,2205.05 2930.29,2202.88 2926.74,2201.62"/>
    </edge>
    <edge id=":3840258360_5" function="internal">
        <lane id=":3840258360_5_0" index="0" disallow="tram rail_urban rail rail_electric rail_fast ship" speed="3.66" length="4.70" shape="2933.12,2212.15 2932.75,2210.75 2932.12,2210.10 2931.23,2210.22 2930.07,2211.10"/>
    </edge>
    <edge id=":3840258360_6" function="internal">
        <lane id=":3840258360_6_0" index="0" disallow="tram rail_urban rail rail_electric rail_fast ship" speed="6.28" length="8.57" shape="2926.15,2204.77 2928.32,2205.53 2929.70,2206.84 2930.29,2208.69 2930.07,2211.10"/>
    </edge>
    <edge id=":3840258360_7" function="internal">
        <lane id=":3840258360_7_0" index="0" disallow="tram rail_urban rail rail_electric rail_fast ship" speed="13.89" length="14.41" shape="2926.15,2204.77 2929.76,2205.40 2933.27,2205.87 2936.81,2206.16 2940.46,2206.23"/>
    </edge>
    <edge id=":3840258360_8" function="internal">
        <lane id=":3840258360_8_0" index="0" disallow="tram rail_urban rail rail_electric rail_fast ship" speed="3.65" length="4.67" shape="2926.15,2204.77 2927.48,2204.20 2928.02,2203.49 2927.77,2202.63 2926.74,2201.62"/>
    </edge>
    <edge id=":3840258363_0" function="internal">
        <lane id=":3840258363_0_0" index="0" disallow="tram rail_urban rail rail_electric rail_fast ship" speed="3.65" length="4.67" shape="2916.71,2582.20 2917.42,2583.45 2918.19,2583.92 2919.01,2583.58 2919.91,2582.44"/>
    </edge>
    <edge id=":3840258364_0" function="internal">
        <lane id=":3840258364_0_0" index="0" disallow="tram rail_urban rail rail_electric rail_fast ship" speed="13.89" length="14.40" shape="2921.89,2293.22 2920.64,2307.57"/>
    </edge>
    <edge id=":3840258364_1" function="internal">
        <lane id=":3840258364_1_0" index="0" disallow="tram rail_urban rail rail_electric rail_fast ship" speed="8.12" length="4.01" shape="2921.89,2293.22 2922.11,2297.05 2922.19,2297.20"/>
    </edge>
    <edge id=":3840258364_2" function="internal">
        <lane id=":3840258364_2_0" index="0" disallow="tram rail_urban rail rail_electric rail_fast ship" speed="3.65" length="1.44" shape="2921.89,2293.22 2922.59,2294.48"/>
    </edge>
    <edge id=":3840258364_9" function="internal">