<?xml version="1.0" encoding="UTF-8"?>

<!-- generated on 2025-03-30 12:50:37 by Eclipse SUMO netedit Version 1.22.0
-->

<neteditConfiguration xmlns:xsi="http://www.w3.org/2001/XMLSchema-instance" xsi:noNamespaceSchemaLocation="http://sumo.dlr.de/xsd/neteditConfiguration.xsd">

    <input>
        <sumocfg-file value="AmritaMap.sumocfg"/>
        <additional-files value="../Sumo/2025-03-30-12-07-34/osm.poly.xml.gz"/>
        <route-files value="../Sumo/2025-03-30-12-07-34/osm.passenger.trips.xml"/>
        <sumo-net-file value="AmritaMap.net.xml"/>
    </input>

    <output>
        <output.street-names value="true"/>
    </output>

    <processing>
        <geometry.min-radius.fix.railways value="false"/>
        <geometry.max-grade.fix value="false"/>
        <offset.disable-normalization value="true"/>
        <lefthand value="1"/>
    </processing>

    <junctions>
        <no-turnarounds value="true"/>
        <junctions.corner-detail value="5"/>
        <junctions.limit-turn-speed value="5.50"/>
        <rectangular-lane-cut value="0"/>
    </junctions>

    <pedestrian>
        <walkingareas value="0"/>
    </pedestrian>

    <netedit>
        <ignore.routeelements value="false"/>
    </netedit>

</neteditConfiguration>
