<?xml version="1.0" encoding="UTF-8"?>

<!-- generated on 2025-03-30 16:31:47 by Eclipse SUMO netedit Version 1.22.0
-->

<additional xmlns:xsi="http://www.w3.org/2001/XMLSchema-instance" xsi:noNamespaceSchemaLocation="http://sumo.dlr.de/xsd/additional_file.xsd">
    <!-- StoppingPlaces -->
    <busStop id="bs_0" lane="313120155#5_0" startPos="173.85" endPos="183.85"/>
    <!-- Other additionals -->
    <rerouter id="rr_0" edges="313120155#3 -546394554" pos="1132.00,850.69"/>
    <rerouter id="rr_1" edges="-380829424" pos="900.00,900.00"/>
    <rerouter id="rr_2" edges="-380829424" pos="1200.00,900.00"/>
    <!-- Shapes -->
    <poly id="1080744354" type="amenity.restaurant" color="237,199,199" fill="1" layer="-1.00" shape="1181.026395,1012.708833 1203.949510,1018.782360 1211.967700,985.068092 1190.430780,977.631430 1181.026395,1012.708833"/>
    <poly id="1080744354#1" type="building.yes" color="255,230,230" fill="1" layer="-1.00" shape="1181.026395,1012.708833 1203.949510,1018.782360 1211.967700,985.068092 1190.430780,977.631430 1181.026395,1012.708833"/>
    <poly id="1210976885" type="leisure.sports_centre" color="207,245,201" fill="1" layer="-2.00" shape="1267.224628,1114.565106 1260.974277,1201.116716 1310.832181,1204.670970 1317.060798,1118.119211 1267.224628,1114.565106"/>
    <poly id="1210976885#1" type="sport.swimming" color="79,230,125" fill="1" layer="-2.00" shape="1267.224628,1114.565106 1260.974277,1201.116716 1310.832181,1204.670970 1317.060798,1118.119211 1267.224628,1114.565106"/>
    <poly id="1256941484" type="building.yes" color="255,230,230" fill="1" layer="-1.00" shape="1314.794855,1230.074571 1261.634546,1226.588094 1256.618594,1247.078665 1281.675591,1251.096865 1280.751576,1258.956928 1233.462027,1253.847854 1231.847705,1265.431848 1227.806141,1278.748586 1226.831380,1292.958543 1225.215741,1304.752726 1327.490432,1316.977402 1328.908093,1300.148266 1329.452367,1284.851420 1331.724047,1273.061351 1333.129317,1259.949338 1286.902914,1259.659303 1286.080432,1251.334697 1317.764002,1253.502709 1314.794855,1230.074571"/>
    <poly id="1256941484#1" type="tourism.hostel" color="207,245,201" fill="1" layer="-2.00" shape="1314.794855,1230.074571 1261.634546,1226.588094 1256.618594,1247.078665 1281.675591,1251.096865 1280.751576,1258.956928 1233.462027,1253.847854 1231.847705,1265.431848 1227.806141,1278.748586 1226.831380,1292.958543 1225.215741,1304.752726 1327.490432,1316.977402 1328.908093,1300.148266 1329.452367,1284.851420 1331.724047,1273.061351 1333.129317,1259.949338 1286.902914,1259.659303 1286.080432,1251.334697 1317.764002,1253.502709 1314.794855,1230.074571"/>
    <poly id="128964693" type="amenity.university" color="237,199,199" fill="1" layer="-2.00" shape="796.747599,1129.185693 643.302505,1036.457752 645.489697,934.967913 651.001137,798.440046 838.601920,846.233183 843.525832,808.959345 848.282019,767.037969 861.810860,666.880204 806.745759,654.886275 750.644430,638.991768 747.948656,620.720865 708.115763,617.274557 719.364830,514.425295 755.585322,513.313151 756.063742,536.471120 815.715148,533.724430 881.418820,531.812256 883.725019,514.479802 886.707592,492.151076 891.376600,457.176756 898.661631,402.537613 1045.606752,353.341690 1262.603954,357.035421 1412.113298,355.915145 1418.104259,188.711931 1479.460007,193.300774 1474.946969,361.907256 1823.254257,379.284175 1861.843142,391.098754 1899.195379,420.473848 1934.171077,455.664317 1964.441535,493.148499 1989.580820,529.372434 2107.279493,698.980791 2099.348644,722.141327 2093.421737,875.085082 1905.765486,869.246587 1876.849452,1087.583578 1869.224074,1116.100604 1906.230761,1200.247242 1908.057156,1281.849315 1902.486666,1421.674354 1859.631338,1521.636636 1627.535671,1494.532754 1514.791406,1483.336515 1472.592553,1477.241209 1442.114143,1474.715494 1425.903664,1472.290455 1139.837216,1447.185602 1147.854322,1258.422189 1084.539122,1254.529373 994.892478,1249.343279 955.069699,1225.197589 913.678347,1200.101774 856.841479,1165.627415 796.747599,1129.185693"/>
    <poly id="15595902" type="natural.wood" color="140,196,107" fill="1" layer="-4.00" shape="3115.282696,303.039773 2852.052556,316.754074 2471.516176,521.975165 2332.443267,728.709635 2108.177723,695.247105 2262.769437,883.475504 2301.510227,969.967954 2448.060869,1049.329736 2621.083249,1104.243847 2830.132293,1091.724190 2791.833480,1272.962622 2737.502681,1297.223858 2724.387696,1414.012426 2637.688093,1416.540354 2591.088743,1442.399441 2641.168008,1599.580431 2684.264981,1638.297214 1331.737155,1589.797899 1251.025676,1626.197881 1136.411601,1637.781098 1025.373733,1572.487643 986.130356,1412.313876 994.892478,1249.343279 955.069699,1225.197589 913.678347,1200.101774 856.841479,1165.627415 796.747599,1129.185693 643.302505,1036.457752 645.489697,934.967913 503.073054,937.153296 502.010480,858.720735 133.993403,797.977579 -198.108982,686.716338"/>
    <poly id="380702787" type="leisure.swimming_pool" color="207,245,201" fill="1" layer="-2.00" shape="1274.013798,1179.182955 1298.888482,1180.898892 1302.324899,1131.590118 1277.461111,1129.874253 1274.013798,1179.182955"/>
    <poly id="380702789" type="building.university" color="255,230,230" fill="1" layer="-1.00" shape="1180.779038,855.069389 1219.467253,859.681835 1220.096017,853.567890 1224.190610,854.467545 1225.433531,842.825907 1241.842931,844.964397 1240.605415,855.743148 1244.415736,856.641023 1243.497242,861.879167 1276.900884,867.044892 1275.036454,883.638898 1259.229179,881.382470 1240.756345,878.755317 1239.531591,887.498540 1274.105162,892.660539 1269.756618,930.513288 1226.970224,925.587432 1225.078419,946.551184 1266.399697,951.467854 1262.940377,988.750899 1339.410757,1001.178702 1336.970528,1015.434784 1306.211067,1010.584260 1305.279794,1017.857933 1296.500242,1016.054894 1297.426062,1007.907202 1264.908177,1002.746985 1265.832184,994.886923 1255.574802,993.362268 1258.984692,965.703802 1209.461536,959.275387 1213.186753,924.914670 1174.509549,920.302287 1176.074841,904.325942 1176.273816,902.236266 1176.484696,899.991782 1177.644293,887.685838 1180.779038,855.069389"/>
    <poly id="380702790" type="amenity.library" color="237,199,199" fill="1" layer="-1.00" shape="1268.620662,972.169761 1292.344403,976.113192 1294.188793,962.716293 1297.999100,963.614177 1296.152906,977.298704 1312.266966,979.446452 1314.408372,965.763776 1317.921671,966.947439 1316.374350,980.047498 1338.928202,983.983626 1342.895706,959.824592 1328.828004,957.402027 1329.741030,953.037833 1338.272934,947.261106 1332.159427,940.518519 1332.780858,935.577214 1346.263712,937.111063 1349.937821,912.662548 1327.070424,909.897142 1325.858485,916.593775 1318.246987,915.085701 1319.176488,906.351688 1324.484786,902.015064 1324.569509,900.710151 1324.643368,899.394106 1320.428573,894.997746 1316.801282,894.554596 1311.622610,893.913644 1306.405806,897.609184 1306.314839,899.909737 1308.930041,903.079121 1311.726007,905.320340 1310.338411,913.874470 1302.715979,912.366332 1303.344759,906.252386 1280.198569,902.611281 1277.124081,925.603228 1289.719451,927.430190 1288.511128,933.551564 1282.027474,938.754805 1286.967497,946.065301 1286.050799,951.015817 1271.988546,949.467295 1268.620662,972.169761"/>
    <poly id="380702790#1" type="building.yes" color="255,230,230" fill="1" layer="-1.00" shape="1268.620662,972.169761 1292.344403,976.113192 1294.188793,962.716293 1297.999100,963.614177 1296.152906,977.298704 1312.266966,979.446452 1314.408372,965.763776 1317.921671,966.947439 1316.374350,980.047498 1338.928202,983.983626 1342.895706,959.824592 1328.828004,957.402027 1329.741030,953.037833 1338.272934,947.261106 1332.159427,940.518519 1332.780858,935.577214 1346.263712,937.111063 1349.937821,912.662548 1327.070424,909.897142 1325.858485,916.593775 1318.246987,915.085701 1319.176488,906.351688 1324.484786,902.015064 1324.569509,900.710151 1324.643368,899.394106 1320.428573,894.997746 1316.801282,894.554596 1311.622610,893.913644 1306.405806,897.609184 1306.314839,899.909737 1308.930041,903.079121 1311.726007,905.320340 1310.338411,913.874470 1302.715979,912.366332 1303.344759,906.252386 1280.198569,902.611281 1277.124081,925.603228 1289.719451,927.430190 1288.511128,933.551564 1282.027474,938.754805 1286.967497,946.065301 1286.050799,951.015817 1271.988546,949.467295 1268.620662,972.169761"/>
    <poly id="380702791" type="building.yes" color="255,230,230" fill="1" layer="-1.00" shape="1335.767675,832.443669 1430.462979,838.281710 1437.500684,744.798440 1341.052128,739.524709 1335.767675,832.443669"/>
    <poly id="380702791#1" type="tourism.hostel" color="207,245,201" fill="1" layer="-2.00" shape="1335.767675,832.443669 1430.462979,838.281710 1437.500684,744.798440 1341.052128,739.524709 1335.767675,832.443669"/>
    <poly id="380702792" type="building.university" color="255,230,230" fill="1" layer="-1.00" shape="1410.360347,724.227786 1437.322522,726.144938 1439.302266,691.186908 1412.039372,690.141857 1410.360347,724.227786"/>
    <poly id="380702793" type="leisure.pitch" color="207,245,201" fill="1" layer="-2.00" shape="1442.288102,729.384397 1465.153862,730.689522 1467.447103,692.823860 1444.284305,691.804515 1442.288102,729.384397"/>
    <poly id="380702793#1" type="sport.basketball" color="79,230,125" fill="1" layer="-2.00" shape="1442.288102,729.384397 1465.153862,730.689522 1467.447103,692.823860 1444.284305,691.804515 1442.288102,729.384397"/>
    <poly id="380702796" type="building.university" color="255,230,230" fill="1" layer="-1.00" shape="1401.177708,643.752528 1411.737767,644.106421 1411.706672,649.062493 1418.747914,649.106670 1419.418808,634.540781 1401.828504,634.131717 1401.177708,643.752528"/>
    <poly id="380702797" type="building.university" color="255,230,230" fill="1" layer="-1.00" shape="1425.818448,644.482406 1436.660907,645.136783 1436.628004,650.380485 1444.246922,650.715933 1445.231257,634.990384 1426.465536,633.711010 1425.818448,644.482406"/>
    <poly id="380702798" type="building.university" color="255,230,230" fill="1" layer="-1.00" shape="1470.796861,673.030871 1483.986427,674.275277 1484.963422,659.722368 1471.773920,658.466901 1470.796861,673.030871"/>
    <poly id="380702799" type="building.university" color="255,230,230" fill="1" layer="-1.00" shape="1471.539046,648.851593 1485.902127,649.528081 1486.890162,633.216209 1472.215448,633.411751 1471.539046,648.851593"/>
    <poly id="380702800" type="building.apartments" color="255,230,230" fill="1" layer="-1.00" shape="1426.283677,615.643832 1452.086979,617.553709 1453.058577,602.115720 1426.969184,600.491690 1426.283677,615.643832"/>
    <poly id="380702801" type="building.apartments" color="255,230,230" fill="1" layer="-1.00" shape="1459.707710,617.601531 1484.922403,619.220100 1485.892212,604.069739 1460.389554,603.035708 1459.707710,617.601531"/>
    <poly id="380702802" type="building.apartments" color="255,230,230" fill="1" layer="-1.00" shape="1427.315547,592.340361 1442.848618,593.013103 1444.188478,567.675954 1428.642656,567.290773 1427.315547,592.340361"/>
    <poly id="380702803" type="building.apartments" color="255,230,230" fill="1" layer="-1.00" shape="1453.714802,591.632021 1468.664713,592.887460 1469.676513,571.044189 1454.726661,569.777688 1453.714802,591.632021"/>
    <poly id="380702804" type="building.university" color="255,230,230" fill="1" layer="-1.00" shape="1431.772141,535.548257 1435.560566,539.941949 1438.210220,537.624260 1447.244817,547.593482 1444.292667,551.070898 1448.073833,554.878202 1459.286468,545.334727 1441.814909,524.249467 1431.772141,535.548257"/>
    <poly id="380702805" type="building.apartments" color="255,230,230" fill="1" layer="-1.00" shape="1392.043459,604.354858 1411.975414,606.227870 1412.950639,591.951532 1392.719789,590.662989 1392.043459,604.354858"/>
    <poly id="380702806" type="building.apartments" color="255,230,230" fill="1" layer="-1.00" shape="1392.475727,582.507958 1413.870997,584.677789 1414.840771,569.527432 1393.155735,568.229768 1392.475727,582.507958"/>
    <poly id="380702807" type="building.yes" color="255,230,230" fill="1" layer="-1.00" shape="1514.836068,572.489238 1582.307628,569.416867 1579.774360,506.175314 1519.066233,509.987139 1516.692588,510.138187 1512.295383,510.409292 1514.836068,572.489238"/>
    <poly id="380702807#1" type="tourism.hostel" color="207,245,201" fill="1" layer="-2.00" shape="1514.836068,572.489238 1582.307628,569.416867 1579.774360,506.175314 1519.066233,509.987139 1516.692588,510.138187 1512.295383,510.409292 1514.836068,572.489238"/>
    <poly id="380702808" type="building.university" color="255,230,230" fill="1" layer="-1.00" shape="1471.527463,509.567100 1476.812028,509.024980 1477.085299,512.522635 1496.441546,512.057762 1496.501879,502.444306 1516.160634,500.819717 1516.692588,510.138187 1519.066233,509.987139 1518.568098,491.796273 1503.308280,492.873188 1503.273565,498.404521 1499.457718,498.380573 1499.510761,489.928697 1471.064949,490.922876 1471.527463,509.567100"/>
    <poly id="380702809" type="building.university" color="255,230,230" fill="1" layer="-1.00" shape="1525.065092,623.841989 1573.180427,621.223399 1572.743614,598.497038 1524.323941,602.562990 1525.065092,623.841989"/>
    <poly id="380702810" type="building.university" color="255,230,230" fill="1" layer="-1.00" shape="1526.106199,599.078237 1572.761881,595.587556 1572.272109,579.554041 1525.317516,583.629195 1526.106199,599.078237"/>
    <poly id="380702842" type="building.university" color="255,230,230" fill="1" layer="-1.00" shape="1607.485224,669.231434 1617.748270,669.871170 1619.693391,640.455518 1586.560888,639.085827 1586.205314,648.697434 1609.074755,649.427390 1608.683656,654.248449 1607.485224,669.231434"/>
    <poly id="380829415" type="building.university" color="255,230,230" fill="1" layer="-1.00" shape="1073.451607,1167.393444 1127.389707,1170.652150 1129.343593,1139.776269 1141.661959,1140.428765 1140.885219,1170.150402 1194.236573,1174.567164 1198.698346,1116.901142 1076.145535,1110.889051 1073.451607,1167.393444"/>
    <poly id="380829416" type="building.university" color="255,230,230" fill="1" layer="-1.00" shape="831.863889,1063.314718 892.143415,1084.092345 896.341930,1070.134912 836.649122,1048.199332 831.863889,1063.314718"/>
    <poly id="380829417" type="building.university" color="255,230,230" fill="1" layer="-1.00" shape="854.237427,1048.884697 906.331510,1067.276805 909.939627,1053.315676 901.735894,1050.354726 903.532679,1044.535737 912.319488,1046.925059 918.285642,1031.806008 866.187833,1014.000210 854.237427,1048.884697"/>
    <poly id="380829418" type="building.university" color="255,230,230" fill="1" layer="-1.00" shape="867.991883,1007.019644 920.650959,1027.738545 925.436236,1012.623164 873.363942,992.483212 867.991883,1007.019644"/>
    <poly id="380829419" type="building.university" color="255,230,230" fill="1" layer="-1.00" shape="909.805864,886.063362 958.995600,898.607090 968.030583,861.370051 918.239439,850.570518 909.805864,886.063362"/>
    <poly id="380829420" type="building.yes" color="255,230,230" fill="1" layer="-1.00" shape="1055.757970,808.307827 1102.105236,806.850218 1102.163666,797.524409 1141.455132,798.356956 1142.556807,716.773636 1056.917782,717.409795 1055.757970,808.307827"/>
    <poly id="380829420#1" type="tourism.hostel" color="207,245,201" fill="1" layer="-2.00" shape="1055.757970,808.307827 1102.105236,806.850218 1102.163666,797.524409 1141.455132,798.356956 1142.556807,716.773636 1056.917782,717.409795 1055.757970,808.307827"/>
    <poly id="380829421" type="building.yes" color="255,230,230" fill="1" layer="-1.00" shape="957.556982,754.667531 1030.866410,755.126595 1032.922354,707.933332 959.011465,709.218482 957.556982,754.667531"/>
    <poly id="380829421#1" type="tourism.hostel" color="207,245,201" fill="1" layer="-2.00" shape="957.556982,754.667531 1030.866410,755.126595 1032.922354,707.933332 959.011465,709.218482 957.556982,754.667531"/>
    <poly id="380829422" type="building.university" color="255,230,230" fill="1" layer="-1.00" shape="978.326699,809.570843 986.530504,810.783837 986.490325,817.200167 999.982295,817.284658 1000.018806,811.454647 1007.643147,810.916052 1008.529109,763.726529 978.614935,763.539206 978.326699,809.570843"/>
    <poly id="380829425" type="building.yes" color="255,230,230" fill="1" layer="-1.00" shape="900.119918,653.490249 929.436496,654.835365 929.396402,661.240630 944.047383,663.080307 944.685164,655.517160 1008.595576,658.826888 1008.548124,666.404795 1023.202776,667.658188 1023.246560,660.666600 1049.636549,661.418217 1052.866068,613.645960 902.762398,606.887026 900.119918,653.490249"/>
    <poly id="380829425#1" type="tourism.hostel" color="207,245,201" fill="1" layer="-2.00" shape="900.119918,653.490249 929.436496,654.835365 929.396402,661.240630 944.047383,663.080307 944.685164,655.517160 1008.595576,658.826888 1008.548124,666.404795 1023.202776,667.658188 1023.246560,660.666600 1049.636549,661.418217 1052.866068,613.645960 902.762398,606.887026 900.119918,653.490249"/>
    <poly id="380829426" type="building.yes" color="255,230,230" fill="1" layer="-1.00" shape="828.322823,645.462779 850.293835,648.222192 855.314309,595.515983 852.090768,595.197110 852.721259,588.795542 833.082729,587.212348 828.322823,645.462779"/>
    <poly id="380829426#1" type="leisure.fitness_centre" color="207,245,201" fill="1" layer="-2.00" shape="828.322823,645.462779 850.293835,648.222192 855.314309,595.515983 852.090768,595.197110 852.721259,588.795542 833.082729,587.212348 828.322823,645.462779"/>
    <poly id="380829427" type="building.yes" color="255,230,230" fill="1" layer="-1.00" shape="1271.184182,641.819872 1296.109113,642.562498 1296.768992,629.744516 1287.096359,629.108584 1287.737965,620.948048 1290.956095,622.129851 1294.775531,621.578519 1297.724051,618.676352 1298.626140,614.312088 1297.181083,611.105794 1293.968501,609.038979 1290.741213,609.317446 1288.100733,610.174874 1288.452610,601.138537 1297.833651,601.197358 1298.506266,588.091815 1272.989005,587.644183 1272.939692,595.509730 1265.896641,595.753214 1265.816257,608.574828 1271.093515,609.194258 1270.730752,619.967431 1265.165547,619.932539 1264.789954,632.752303 1271.238976,633.080376 1271.184182,641.819872"/>
    <poly id="380829427#1" type="tourism.guest_house" color="207,245,201" fill="1" layer="-2.00" shape="1271.184182,641.819872 1296.109113,642.562498 1296.768992,629.744516 1287.096359,629.108584 1287.737965,620.948048 1290.956095,622.129851 1294.775531,621.578519 1297.724051,618.676352 1298.626140,614.312088 1297.181083,611.105794 1293.968501,609.038979 1290.741213,609.317446 1288.100733,610.174874 1288.452610,601.138537 1297.833651,601.197358 1298.506266,588.091815 1272.989005,587.644183 1272.939692,595.509730 1265.896641,595.753214 1265.816257,608.574828 1271.093515,609.194258 1270.730752,619.967431 1265.165547,619.932539 1264.789954,632.752303 1271.238976,633.080376 1271.184182,641.819872"/>
    <poly id="380829429" type="building.university" color="255,230,230" fill="1" layer="-1.00" shape="1447.479023,956.299021 1483.820113,960.310726 1488.159742,923.918236 1451.523406,919.904680 1447.479023,956.299021"/>
    <poly id="380829430" type="building.university" color="255,230,230" fill="1" layer="-1.00" shape="1408.343821,937.555902 1431.202073,940.033671 1432.144380,929.264126 1409.583130,926.500581 1408.343821,937.555902"/>
    <poly id="380829431" type="building.university" color="255,230,230" fill="1" layer="-1.00" shape="1420.434659,925.694697 1435.081921,928.109874 1437.511224,915.601692 1414.355944,913.409699 1413.703330,923.318139 1420.744513,923.362327 1420.434659,925.694697"/>
    <poly id="380829757" type="building.university" color="255,230,230" fill="1" layer="-1.00" shape="1584.364458,1067.158993 1582.787702,1084.927505 1601.248797,1087.665432 1601.868462,1083.011755 1624.435102,1084.901500 1624.114320,1088.970710 1642.577221,1091.421030 1644.452828,1073.079111 1653.252470,1073.422044 1655.395879,1057.703765 1647.489213,1056.193753 1650.246799,1036.695749 1632.374276,1034.249138 1633.631964,1022.021238 1604.612760,1018.630629 1603.070812,1030.856743 1587.824084,1029.886983 1585.943021,1049.102851 1575.980788,1047.591008 1574.114347,1066.220623 1584.364458,1067.158993"/>
    <poly id="380829758" type="building.university" color="255,230,230" fill="1" layer="-1.00" shape="1667.473555,1002.707477 1705.578518,1006.155241 1715.015395,905.108732 1677.489791,901.664618 1667.473555,1002.707477"/>
    <poly id="380829759" type="building.university" color="255,230,230" fill="1" layer="-1.00" shape="1582.313246,974.204931 1626.564694,979.140470 1631.888973,925.274441 1628.955174,925.831292 1630.178157,917.386758 1620.800804,916.752569 1619.863971,924.900196 1587.932725,920.329698 1582.313246,974.204931"/>
    <poly id="380829760" type="amenity.restaurant" color="237,199,199" fill="1" layer="-1.00" shape="1642.972158,981.577867 1659.674895,984.006065 1660.912484,973.238369 1664.139677,972.971006 1665.692699,958.985925 1657.487119,958.060382 1658.106792,953.406705 1651.071098,952.488514 1650.456868,958.016211 1642.253096,956.803042 1640.984425,970.778845 1644.206127,971.385431 1642.972158,981.577867"/>
    <poly id="380829760#1" type="building.yes" color="255,230,230" fill="1" layer="-1.00" shape="1642.972158,981.577867 1659.674895,984.006065 1660.912484,973.238369 1664.139677,972.971006 1665.692699,958.985925 1657.487119,958.060382 1658.106792,953.406705 1651.071098,952.488514 1650.456868,958.016211 1642.253096,956.803042 1640.984425,970.778845 1644.206127,971.385431 1642.972158,981.577867"/>
    <poly id="380925361" type="building.university" color="255,230,230" fill="1" layer="-1.00" shape="1580.123195,461.062162 1595.364700,462.905824 1593.472686,483.869594 1609.884083,485.720610 1614.885619,436.222486 1582.051870,434.257304 1580.123195,461.062162"/>
    <poly id="380925362" type="leisure.pitch" color="207,245,201" fill="1" layer="-2.00" shape="1580.357387,423.758843 1619.645662,426.926176 1622.799148,391.389151 1582.927593,388.815568 1580.357387,423.758843"/>
    <poly id="380925362#1" type="sport.tennis" color="79,230,125" fill="1" layer="-2.00" shape="1580.357387,423.758843 1619.645662,426.926176 1622.799148,391.389151 1582.927593,388.815568 1580.357387,423.758843"/>
    <poly id="380925364" type="building.university" color="255,230,230" fill="1" layer="-1.00" shape="1651.479230,494.135330 1650.797308,508.701162 1674.246292,511.182758 1694.035576,535.778669 1684.009112,544.466606 1693.313325,556.760856 1712.790319,538.817153 1731.420689,559.909869 1742.627929,551.240427 1733.895915,540.111383 1760.421574,519.302391 1780.929399,521.765584 1782.777666,507.782356 1759.922708,504.729133 1741.879169,482.467401 1733.048179,488.828522 1733.664293,483.002132 1726.637622,482.371640 1727.880712,470.729991 1712.045175,469.457816 1710.802021,481.110527 1704.948867,479.912130 1704.908629,486.317420 1699.092146,477.541022 1674.334123,497.199538 1651.479230,494.135330"/>
    <poly id="380925366" type="building.yes" color="255,230,230" fill="1" layer="-1.00" shape="1909.800408,643.208043 1963.790958,638.292649 1961.186976,586.412323 1906.015579,591.309246 1909.800408,643.208043"/>
    <poly id="380925366#1" type="tourism.hostel" color="207,245,201" fill="1" layer="-2.00" shape="1909.800408,643.208043 1963.790958,638.292649 1961.186976,586.412323 1906.015579,591.309246 1909.800408,643.208043"/>
    <poly id="380925368" type="building.yes" color="255,230,230" fill="1" layer="-1.00" shape="1915.722743,541.254334 1946.205754,543.194020 1951.244476,487.865824 1921.931318,485.933499 1915.722743,541.254334"/>
    <poly id="380925368#1" type="tourism.hostel" color="207,245,201" fill="1" layer="-2.00" shape="1915.722743,541.254334 1946.205754,543.194020 1951.244476,487.865824 1921.931318,485.933499 1915.722743,541.254334"/>
    <poly id="380925370" type="building.university" color="255,230,230" fill="1" layer="-1.00" shape="1804.404036,520.165146 1850.715339,524.527483 1852.607521,503.563701 1805.705839,499.186592 1804.404036,520.165146"/>
    <poly id="380925371" type="building.university" color="255,230,230" fill="1" layer="-1.00" shape="1849.894641,655.067160 1885.654864,657.615271 1886.945611,640.143651 1850.587649,638.753412 1849.894641,655.067160"/>
    <poly id="380925373" type="building.university" color="255,230,230" fill="1" layer="-1.00" shape="1868.209219,634.195570 1892.824335,637.271017 1899.025520,584.859739 1872.649977,581.784288 1868.209219,634.195570"/>
    <poly id="380925375" type="building.yes" color="255,230,230" fill="1" layer="-1.00" shape="1999.668424,622.211307 2051.959013,682.414023 2055.556033,678.984964 2062.376260,686.351684 2082.069805,670.511533 2075.248601,661.562774 2078.448115,658.750750 2026.219986,597.309313 2018.758451,604.973366 2015.770709,605.408155 2008.337797,611.999267 2008.489552,613.947332 1999.668424,622.211307"/>
    <poly id="380925375#1" type="tourism.hostel" color="207,245,201" fill="1" layer="-2.00" shape="1999.668424,622.211307 2051.959013,682.414023 2055.556033,678.984964 2062.376260,686.351684 2082.069805,670.511533 2075.248601,661.562774 2078.448115,658.750750 2026.219986,597.309313 2018.758451,604.973366 2015.770709,605.408155 2008.337797,611.999267 2008.489552,613.947332 1999.668424,622.211307"/>
    <poly id="380925377" type="building.yes" color="255,230,230" fill="1" layer="-1.00" shape="1933.473527,796.039155 1979.777074,801.574388 1985.960175,750.324617 1938.475663,746.529934 1933.473527,796.039155"/>
    <poly id="380925377#1" type="tourism.hostel" color="207,245,201" fill="1" layer="-2.00" shape="1933.473527,796.039155 1979.777074,801.574388 1985.960175,750.324617 1938.475663,746.529934 1933.473527,796.039155"/>
    <poly id="380925379" type="building.university" color="255,230,230" fill="1" layer="-1.00" shape="1859.613785,789.158006 1893.609798,792.292466 1896.708584,765.506002 1862.122129,762.367830 1859.613785,789.158006"/>
    <poly id="380925380" type="building.university" color="255,230,230" fill="1" layer="-1.00" shape="1862.771186,753.045699 1907.901266,757.411811 1910.981704,735.282806 1882.842284,732.782577 1884.063523,724.625671 1870.578757,723.379244 1869.342914,733.859314 1864.072975,732.078202 1862.771186,753.045699"/>
    <poly id="380925382" type="building.university" color="255,230,230" fill="1" layer="-1.00" shape="1866.551975,711.693391 1911.102632,716.055854 1913.009545,692.757840 1869.049329,686.651120 1866.551975,711.693391"/>
    <poly id="380926242" type="leisure.pitch" color="207,245,201" fill="1" layer="-2.00" shape="1845.021992,560.524277 1860.253497,562.213125 1862.775471,534.991575 1847.239689,533.002110 1845.021992,560.524277"/>
    <poly id="380926242#1" type="sport.basketball" color="79,230,125" fill="1" layer="-2.00" shape="1845.021992,560.524277 1860.253497,562.213125 1862.775471,534.991575 1847.239689,533.002110 1845.021992,560.524277"/>
    <poly id="380926245" type="leisure.pitch" color="207,245,201" fill="1" layer="-2.00" shape="1837.816085,609.278404 1858.334790,611.741723 1861.037436,578.392339 1840.221625,576.225857 1837.816085,609.278404"/>
    <poly id="380926245#1" type="sport.basketball" color="79,230,125" fill="1" layer="-2.00" shape="1837.816085,609.278404 1858.334790,611.741723 1861.037436,578.392339 1840.221625,576.225857 1837.816085,609.278404"/>
    <poly id="380926247" type="leisure.pitch" color="207,245,201" fill="1" layer="-2.00" shape="1840.142246,635.811329 1850.259487,637.036565 1852.281015,618.109210 1841.879493,616.882187 1840.142246,635.811329"/>
    <poly id="380926247#1" type="sport.volleyball" color="79,230,125" fill="1" layer="-2.00" shape="1840.142246,635.811329 1850.259487,637.036565 1852.281015,618.109210 1841.879493,616.882187 1840.142246,635.811329"/>
    <poly id="380926299" type="building.university" color="255,230,230" fill="1" layer="-1.00" shape="1643.182202,629.617374 1772.705105,645.587622 1777.695993,597.826321 1648.172829,581.867148 1643.182202,629.617374"/>
    <poly id="380926300" type="building.university" color="255,230,230" fill="1" layer="-1.00" shape="1777.410302,643.282876 1816.096932,648.194683 1824.824653,566.072690 1785.554755,561.743570 1777.410302,643.282876"/>
    <poly id="380926301" type="building.university" color="255,230,230" fill="1" layer="-1.00" shape="1594.032350,610.667369 1614.562134,609.623599 1612.988420,579.898209 1591.860908,582.099856 1594.032350,610.667369"/>
    <poly id="380926302" type="building.university" color="255,230,230" fill="1" layer="-1.00" shape="1602.532629,564.676095 1619.519786,567.117083 1624.473786,526.933796 1606.309384,523.910135 1602.532629,564.676095"/>
    <poly id="385666025" type="building.yes" color="255,230,230" fill="1" layer="-1.00" shape="1229.237774,1425.288197 1267.919861,1429.026796 1271.674363,1391.756664 1233.575376,1387.435382 1229.237774,1425.288197"/>
    <poly id="385666026" type="building.yes" color="255,230,230" fill="1" layer="-1.00" shape="1212.558063,1372.158186 1239.523334,1375.236912 1241.969074,1360.095819 1213.833921,1357.009755 1212.558063,1372.158186"/>
    <poly id="385666027" type="building.residential" color="255,230,230" fill="1" layer="-1.00" shape="1262.395914,1375.380393 1283.497259,1377.260746 1284.762114,1363.871275 1264.243907,1361.408238 1262.395914,1375.380393"/>
    <poly id="385666028" type="building.residential" color="255,230,230" fill="1" layer="-1.00" shape="1290.781406,1432.666172 1309.528369,1435.118119 1311.372773,1421.721221 1292.629412,1418.694016 1290.781406,1432.666172"/>
    <poly id="385666029" type="building.residential" color="255,230,230" fill="1" layer="-1.00" shape="1315.399572,1435.154963 1334.150214,1437.020603 1335.994629,1423.623705 1317.247589,1421.182806 1315.399572,1435.154963"/>