<?xml version="1.0" encoding="UTF-8"?>

<!-- generated on 2025-04-03 05:58:34 by Eclipse SUMO netedit Version 1.12.0
-->

<routes xmlns:xsi="http://www.w3.org/2001/XMLSchema-instance" xsi:noNamespaceSchemaLocation="http://sumo.dlr.de/xsd/routes_file.xsd">
    <vType id="t_0"/>
    <route id="r_0" edges="-380829424 -313120155#3 546394554 555268263" color="0,0,0,0"/>
    <route id="r_1" edges="-380829424 -313120155#3 546394554 555268263"/>
    <vehicle id="v_0" depart="0.00" route="r_0"/>
</routes>
