<?xml version="1.0" encoding="UTF-8"?>

<!-- generated on 03/08/25 02:55:19 by Eclipse SUMO polyconvert Version 1.8.0
<configuration xmlns:xsi="http://www.w3.org/2001/XMLSchema-instance" xsi:noNamespaceSchemaLocation="http://sumo.dlr.de/xsd/polyconvertConfiguration.xsd">

    <input>
        <net-file value="osm.net.xml"/>
        <osm-files value="osm_bbox.osm.xml"/>
        <osm.keep-full-type value="true"/>
        <type-file value="C:\sumo\data\typemap\osmPolyconvert.typ.xml"/>
    </input>

    <output>
        <output-file value="osm.poly.xml"/>
    </output>

    <processing>
        <poi-layer-offset value="5"/>
    </processing>

    <report>
        <verbose value="true"/>
    </report>

</configuration>
-->

<additional xmlns:xsi="http://www.w3.org/2001/XMLSchema-instance" xsi:noNamespaceSchemaLocation="http://sumo.dlr.de/xsd/additional_file.xsd">
    <location netOffset="-704899.76,-1203816.09" convBoundary="-23938.81,-3043.68,8003.48,24168.09" origBoundary="76.655931,10.856934,76.948036,11.103402" projParameter="+proj=utm +zone=43 +ellps=WGS84 +datum=WGS84 +units=m +no_defs"/>

    <poly id="1080744354" type="amenity.restaurant" color="237,199,199" fill="1" layer="-1.00" shape="2538.686394,2315.358833 2561.609509,2321.432360 2569.627699,2287.718092 2548.090779,2280.281430 2538.686394,2315.358833"/>
    <poly id="1080744354#1" type="building.yes" color="255,230,230" fill="1" layer="-1.00" shape="2538.686394,2315.358833 2561.609509,2321.432360 2569.627699,2287.718092 2548.090779,2280.281430 2538.686394,2315.358833"/>
    <poly id="1154044397" type="natural.wood" color="140,196,107" fill="1" layer="-4.00" shape="-13611.683783,23024.053331 -13418.068923,23557.478906 -12859.287059,24073.715331 -12206.922006,24168.090723 -11370.828137,24007.113294 -11125.718928,23646.500085 -10441.899014,23560.060156 -10196.053031,23078.753277 -9857.218188,22865.518480 -9146.055869,22707.868826 -6178.579619,21969.406515 -6053.301336,21496.864122 -6207.707248,21286.747684 -6284.041105,20996.040833 -6261.306457,20973.534111 -6288.257466,20906.185955 -6209.345916,20889.044296 -6184.046977,20947.753548 -6131.755307,20939.764504 -6129.387077,20895.483848 -6113.309308,20885.902084 -6112.365010,20845.761255 -6084.775350,20817.376757 -6055.043460,20812.192807 -6025.755761,20831.443718 -5899.672017,20834.171793 -5738.298120,20864.518491 -5634.588776,20982.605856 -5563.495184,20955.638438 -5557.272293,20904.776824 -5529.537168,20879.491182 -5468.887592,20950.343226 -5413.622117,20935.016780 -5401.415681,20872.454217 -5355.982070,20853.151416 -5288.400644,20755.682151 -5275.907827,20537.623187 -4958.168330,20561.951334 -4926.043296,20464.265006 -4621.304555,20571.852622 -4513.134101,20603.836484 -4448.432744,20657.092564 -4494.809630,20508.023611 -4384.286711,20477.384721 -4348.974125,20503.046502 -4208.724535,20445.188542 -4008.838725,20301.552414 -3904.058082,20245.423981 -3887.854469,20173.095522 -3610.017710,20170.893899 -3590.569887,20212.123570 -3264.615497,20075.144506 -3303.316928,19961.355852 -3174.946414,19913.207776 -3176.089721,19780.081132 -2980.795339,19744.096558 -2953.544950,19479.972982 -2441.047776,19449.873216 -1862.907984,19320.346810 -1793.321174,19218.978776 -1426.195888,19119.465228 -1114.828663,19113.576132 -145.300142,19417.220558 61.139596,19525.408485 539.825171,19824.822677 1704.417334,20123.883874 2400.140402,20098.928190 2465.470626,20050.400108 2889.249599,20029.611379 3137.526243,20029.236670 3249.913225,19963.751599 3321.334037,19942.313506 3238.891438,19892.843249 2880.815288,19806.368072 2308.498745,19636.324453 2175.334818,19506.260593 1508.902291,19261.235572 1005.477761,19099.475288 835.547060,18861.520113 576.648705,18669.979894 330.393719,18660.597742 288.614460,18724.943353 -53.229156,18562.259935 -77.380855,18642.370753 -697.984122,18311.536767 -1485.178613,17943.469545 -1603.299443,17575.720588 -1634.955408,17520.607121 -1716.277769,17289.073801 -1841.525995,17149.289417 -1777.532726,16998.932512 -1686.454751,16929.016717 -1644.216773,16792.231641 -1524.251297,16512.996760 -1695.346332,16457.116073 -1820.877919,16362.356568 -1845.765015,16244.724799 -2003.385679,16239.830207 -2109.495073,16192.187856 -2018.063786,16065.487161 -1941.104164,16048.341402 -1936.466438,15936.767453 -2026.719276,15871.600161 -1945.279530,15768.335165 -1705.610540,15889.258279 -1084.059510,16077.168573 -529.612777,15965.108515 -148.445848,15832.390628 -177.201092,15704.952753 -274.915359,15573.156261 -530.673017,15504.980718 -845.776748,15471.694960 -1151.214089,15219.923754 -1375.671912,15119.867909 -1641.596085,15100.603371 -2151.736789,15058.276976 -2570.003609,15135.961270 -2946.879964,15213.916991 -3112.046601,15154.154584 -3477.953023,15050.089696 -3676.678365,14999.914567 -4051.259866,15025.027822 -4413.523388,14969.938174 -4432.783548,14895.423107 -4758.252414,14946.300697 -5222.809995,15184.288364 -5417.066810,15371.059396 -5565.378855,15131.289719 -5918.342588,15168.304040 -6116.639471,15045.708417 -6513.822978,15225.379098 -6743.307700,15047.783192 -6773.237529,14783.282460 -7090.477238,14777.448154 -7897.080520,14829.634704 -8828.517997,14930.652900 -9168.770563,14974.304964 -9168.960918,15006.141709 -9301.273047,14994.277300 -9372.306037,14989.693452 -9393.353059,15013.108727 -9410.437562,15073.916765 -9490.186139,15128.819395 -9780.803596,15259.990219 -9821.140253,15248.676235 -9907.818712,15296.613295 -10159.570290,15220.354271 -10196.571226,15114.919202 -10278.750919,15110.282055 -10346.119046,14956.213241 -10309.734468,14930.123014 -10281.381012,14848.606498 -10314.320668,14763.960055 -10492.955430,14809.969546 -10633.970618,14857.585934 -10722.061071,14909.676200 -10858.408319,14874.253492 -10855.178459,14799.512879 -10808.668401,14709.795853 -10746.907324,14634.019419 -10657.368172,14573.640761 -10528.484450,14458.106234 -10380.165984,14355.154848 -10290.172888,14218.625856 -10278.203006,14080.250591 -10479.820378,14005.676408 -10714.078269,14033.359135 -10991.034302,14210.321127 -11650.859636,14567.762855 -12176.510729,14387.457563 -12229.728866,14432.831878 -12314.729070,14433.714731 -12597.399828,14398.822579 -12872.900750,14332.137712 -13144.400716,14293.167651 -13359.507989,14383.283387 -13519.609169,14596.933202 -13698.229391,14641.576869 -13789.675600,14552.434438 -13892.334074,14474.311316 -14018.610623,14384.966582 -14207.765397,14324.338903 -15053.655772,13857.026149 -15333.698730,13287.739207 -15763.403595,12785.746768 -15807.825062,12378.902263 -15607.258054,12066.403205 -15267.517155,11952.201079 -15101.813568,11604.645728 -15279.607435,11214.562695 -15318.540110,11110.475481 -15413.252152,11077.063293 -15375.963713,10814.552727 -15404.818326,10689.362046 -15532.726338,10646.455725 -15558.944768,10516.977338 -15542.525580,10457.812158 -15502.923088,10315.139861 -15479.750607,10231.621620 -15300.121340,10227.557724 -15290.398664,10067.411978 -15267.240828,10016.858863 -15154.908146,9997.628402 -15260.278921,9806.652093 -15230.939956,8921.153813 -15214.696062,8211.656197 -15221.236945,8077.667244 -15229.253787,7890.560560 -15243.660402,7816.449871 -14997.354435,7690.068363 -14576.053413,7634.412718 -14141.910395,7381.310335 -14573.771343,7239.396358 -15311.016116,7328.089999 -16174.215184,6951.338150 -16628.562268,6736.890428 -16690.007626,6566.538176 -16824.539475,6461.013036 -16527.626148,5357.532862 -16163.711125,5115.605254 -15636.522519,4955.955874 -15180.710886,5005.044047 -14967.738390,4576.350620 -14870.831102,3995.925710 -14189.382121,3453.724730 -13953.597663,3129.725647 -13226.681404,2820.185465 -12466.481000,2824.599827 -11483.451674,2725.751136 -11072.547864,2460.891001 -10875.614654,2329.220051 -9919.072983,2271.510894 -8442.866885,2983.704163 -8093.626110,3785.144701 -6908.488342,4719.476151 -6155.670067,4697.459385 -5656.463689,4191.608952 -5159.260503,4019.688709 -5001.625321,4418.189874 -5309.264850,5004.696413 -6122.992053,5657.735379 -6120.681094,5720.540673 -6019.495457,6002.185161 -4981.945382,6453.685767 -4628.709441,6265.019946 -4624.654915,5597.189626 -4234.265527,4565.961162 -3861.323762,3773.128958 -3443.255950,3457.620830 -2771.529229,3541.240629 -1923.156037,3530.530963 -1407.462139,2961.209627 -560.148571,3125.463501 -467.652991,3698.530119 392.286663,4403.571264 2041.316503,4334.340127 2407.837397,4591.078368 2723.905135,4816.937035 3149.077829,4852.371183 4231.319919,4777.506371 4621.460606,4637.883510 4944.007983,4571.715496 5135.457047,4532.817119 5322.098151,4543.408344 5407.042341,4549.790538 5653.971504,4548.144414 5883.662479,4580.232740 5898.566620,4764.907975 6452.302569,4919.196522 6906.734892,4954.845109 7193.665979,4907.587814 7138.067197,4845.032409 6756.232971,4790.208690 6671.160950,4698.014732 6912.797096,4522.793333 7150.073308,4514.502649 7733.250054,4511.702393 8003.479160,4500.344101 7992.562015,4150.016784 7957.056559,4035.226297 7846.078548,3874.103137 7558.170648,3557.995198 7385.361915,3275.366144 7434.949188,3249.497534 7831.092953,3130.921752 7831.640453,3045.814492 7656.979013,3051.240915 7687.367253,2936.852653 7787.132822,2793.459658 7533.839830,2729.633570 7105.967315,2658.140776 6944.689277,2630.920622 7066.484525,2533.546699 7333.351912,2540.601185 7463.170823,2537.495669 7606.077415,2466.390628 7656.367043,2351.820357 7510.337092,2284.270000 7253.853699,2204.063676 7134.614885,2301.508906 6896.840987,2385.096480 6677.450211,2170.911844 6286.335640,1977.062736 5978.241902,1910.112678 5322.569522,1810.510522 4810.045285,1671.403491 4472.942695,1605.689773 4209.712555,1619.404074 3829.176175,1824.625165 3690.103266,2031.359635 3465.837722,1997.897105 3620.429436,2186.125504 3659.170226,2272.617954 3805.720868,2351.979736 3978.743248,2406.893847 4187.792292,2394.374190 4149.493479,2575.612622 4095.162680,2599.873858 4082.047696,2716.662426 3995.348092,2719.190354 3948.748742,2745.049441 3998.828007,2902.230431 4041.924980,2940.947214 4031.845865,3066.992706 3868.972826,3121.324152 3802.856993,3296.224786 3564.676561,3267.042138 3332.926380,3199.446305 3083.744908,3194.802421 2856.099302,3213.362317 2661.864610,3086.045244 2689.397154,2892.447899 2608.685675,2928.847881 2494.071600,2940.431098 2383.033732,2875.137643 2343.790355,2714.963875 2352.552477,2551.993279 2312.729698,2527.847589 2271.338346,2502.751774 2214.501479,2468.277415 2154.407598,2431.835693 2000.962504,2339.107752 2003.149696,2237.617912 1860.733053,2239.803296 1859.670479,2161.370735 1491.653402,2100.627579 1159.551017,1989.366338 826.515588,1778.137922 782.592106,1871.679051 640.327663,1849.266837 602.774549,1913.630358 576.287194,1942.683221 556.034566,1962.548284 410.466529,1973.947033 76.256153,1951.884905 -222.733713,1993.091582 -408.621486,1513.659839 -429.940502,1456.631658 -457.618841,1427.232567 -738.507467,1293.242774 -976.655025,1254.869783 -1029.619328,1309.902309 -1100.904117,1323.303204 -1193.537611,1284.289835 -1256.495067,1202.391523 -1428.838317,1035.234739 -1465.395955,938.121828 -1587.308931,878.939502 -1538.623763,763.886109 -1607.667924,665.036381 -1727.777953,561.260550 -1884.071884,554.151753 -2019.889776,488.724242 -2351.488377,543.602895 -2564.189325,394.659718 -2548.378046,305.048198 -2626.935909,277.387471 -2395.650274,171.147731 -2238.958409,115.198305 -1692.881943,-79.859545 -1693.982173,-153.688499 -1594.881929,-159.231966 -1666.806188,-293.477717 -1688.579101,-530.455062 -1715.855273,-625.983645 -1701.114952,-758.160402 -1717.273096,-899.752780 -1992.901259,-1139.831749 -2077.013893,-1561.760837 -2074.671975,-1690.937787 -2001.229709,-2056.545793 -2104.588042,-2115.632818 -2165.950399,-2460.524516 -2221.131437,-2551.609135 -2240.885662,-2611.711988 -2232.740394,-2677.806632 -2269.034240,-2819.531869 -2385.520735,-3010.963931 -2508.276161,-2936.341053 -2557.157525,-2788.984099 -2618.117253,-2644.200847 -2650.854529,-2524.291842 -2734.903998,-2655.222063 -2956.151460,-2857.555091 -3212.000883,-3043.679057 -3283.048066,-2816.472653 -3501.872383,-2470.187271 -3533.160666,-2161.229730 -3637.093569,-1869.638505 -3867.615693,-1892.562859 -4092.337899,-1849.317832 -4177.707817,-1812.917856 -4249.349816,-1741.067399 -4445.027949,-1636.125291 -4641.450245,-1665.000458 -4575.131164,-1367.756353 -4620.881133,-1226.541185 -4654.850433,-1176.566000 -4683.358484,-1134.633578 -4703.932037,-1059.398970 -4712.527034,-917.959614 -4700.992400,-776.398790 -4690.256571,-761.598558 -4630.374512,-679.074823 -4552.257242,-541.724898 -4530.354341,-324.742381 -4514.037651,-279.939587 -4465.403043,-142.236335 -4430.474822,54.204385 -4560.519264,98.233107 -4614.623036,116.546767 -4649.180150,128.241418 -4746.475788,90.737769 -4836.234678,87.120550 -4921.435682,94.660087 -5031.382972,104.395907 -5163.661868,185.594836 -5197.617714,206.442427 -5323.448609,281.043138 -5571.680226,116.519852 -5759.766388,143.333564 -5768.433612,144.564759 -5964.872667,120.319846 -6022.682547,31.206867 -6046.788142,-5.953104 -6063.028319,-30.985547 -6195.557072,-130.214800 -6314.562202,-161.681668 -6362.601778,-147.953084 -6419.995048,-131.559042 -6631.019871,-48.237373 -6661.153988,-70.243953 -6746.189488,-132.337403 -6822.123963,-187.794010 -6789.893389,-401.373807 -6861.966030,-514.066761 -6838.830884,-557.714099 -6816.482135,-682.067260 -6889.527800,-630.055932 -6930.529036,-639.626360 -6980.814248,-665.569341 -7014.579419,-707.730900 -7050.639932,-759.220735 -7138.743600,-739.933098 -7255.685911,-802.403019 -7320.311314,-785.309209 -7384.497001,-691.461080 -7393.855827,-649.379761 -7427.426225,-606.778839 -7516.008897,-624.463990 -7595.535499,-594.780785 -7682.175626,-591.601157 -7766.483963,-612.800203 -7807.623457,-560.464740 -7882.746763,-489.657681 -7990.812587,-478.097530 -8332.062844,-473.561710 -8549.318108,-461.783858 -8680.720470,-407.083462 -8804.835941,-340.159808 -9080.519955,-349.001482 -9122.257519,-241.223564 -9114.622628,-88.019534 -9126.779088,0.496399 -9147.047585,40.710234 -9304.653976,89.616076 -9400.970149,184.018537 -9452.355298,218.539911 -9460.660677,234.487150 -9480.218649,261.839739 -9514.261544,298.056413 -9556.352025,356.593812 -9660.833858,443.503685 -9949.091575,478.666542 -10106.785754,513.393213 -10149.232878,612.384069 -10273.969664,639.284921 -10377.604013,641.950821 -10725.478448,499.673428 -10879.362062,567.314193 -11002.622551,551.348872 -11302.363811,346.360062 -11680.256358,241.474942 -11840.575752,383.752732 -11909.852803,474.070781 -11896.219094,554.893565 -11922.700367,671.291230 -11996.473927,717.146096 -12172.033024,720.671018 -12269.699501,804.762332 -12367.789919,928.022749 -12447.517605,952.604351 -12579.843435,961.670159 -12758.791843,933.462934 -12933.069059,933.083099 -13089.249451,945.607914 -13359.539378,1112.753223 -13642.795894,799.395750 -13978.496452,816.431075 -14179.091192,835.253902 -14627.154855,667.995923 -14703.187348,736.786025 -14774.673780,929.851839 -14798.270401,1036.963464 -14940.344349,1182.964466 -15209.383573,1304.012414 -15373.064005,1366.947641 -15636.898317,1408.149258 -15756.265628,1545.809213 -16074.983869,1652.585989 -16316.874488,1819.040222 -16620.304058,2045.101792 -16791.083241,2146.443092 -16961.614570,2208.195654 -17131.989619,2227.128948 -17474.995943,2590.107507 -17759.183583,2550.268458 -18181.741206,2765.214436 -18602.089106,2732.589782 -19125.253666,2790.764089 -19606.009670,2771.175746 -20206.080416,3101.687376 -20807.764412,3308.085736 -21240.283958,3468.830152 -21606.965395,3601.969466 -21809.179852,3689.408984 -22109.873706,3916.080738 -22660.867281,4308.625893 -22940.845351,4555.306757 -23185.028291,4833.634731 -23323.466110,4940.945659 -23466.134367,4980.790786 -23569.840650,4974.579533 -23710.599692,5493.118335 -23938.812328,5905.394727 -23631.508720,6173.015568 -23493.451058,6253.009479 -23375.571472,6306.942278 -22979.515101,6410.018705 -22876.866970,6731.817279 -22857.942427,6859.927926 -23033.801649,7117.789929 -23117.023150,7241.509397 -23059.110607,7453.229222 -22938.822364,7756.829516 -22794.874274,8023.283481 -22707.935410,8245.054314 -22786.987896,9094.943101 -22626.332716,9335.109368 -22359.262238,9551.199638 -22028.755857,9845.653056 -21975.624180,10008.534674 -20665.361127,11529.301692 -20724.298117,11874.974835 -20495.372186,12868.853260 -20438.831915,13656.699869 -20188.088550,14162.136620 -19942.737497,14502.380692 -19836.189183,15031.156355 -19660.003979,15257.550934 -18996.208661,15816.083876 -18493.656409,16046.743591 -18073.084188,16465.241524 -17983.385112,17015.294048 -17792.300952,17032.516022 -17780.988042,17045.423836 -17778.860125,17047.858609 -17653.799859,17190.545390 -17515.891720,17247.852071 -17169.876702,17191.308869 -16754.617762,17156.993296 -16581.024752,17201.843523 -16335.778508,17250.548518 -16102.850702,17091.614296 -15629.240840,16964.506381 -15332.933644,16989.952155 -15170.806425,17087.941582 -15056.909076,17101.966211 -14597.181608,16967.225410 -14407.734810,16862.563146 -14199.986729,16730.607394 -13829.388718,16554.470098 -13801.752938,16427.625834 -13605.768050,16457.998414 -13518.264388,16441.032110 -13220.048172,16302.232677 -12778.561843,16205.085789 -12458.856121,16124.219366 -12185.066264,16118.784854 -11906.742858,15943.339848 -11709.148972,16182.878247 -11111.488109,16451.480651 -10940.816060,16478.622107 -10619.796993,16527.012449 -10398.775710,16535.384451 -10100.238786,16569.420033 -9921.150658,16691.544270 -9800.564426,16682.019892 -9629.076003,16711.341683 -9441.189624,16748.882348 -9163.990439,16869.352488 -9075.428628,16984.568138 -8959.666198,17332.935165 -9006.086483,17542.037285 -8602.650834,17947.512216 -8421.912535,18274.546633 -8272.826033,18534.585099 -8159.854684,18759.548710 -8435.720089,19010.655370 -8618.554032,18967.472915 -8773.792241,18883.702988 -8957.808504,18689.677777 -9037.743696,18565.596224 -9083.948916,18405.697705 -9085.944840,18301.211192 -9138.898313,18165.820151 -9317.099713,18010.640234 -9520.842957,17746.088671 -9742.676635,17655.454893 -9890.766619,17593.804191 -10006.001018,17536.620377 -10131.206460,17518.638281 -10349.550717,17498.564174 -10397.984035,17524.250398 -10602.366319,17447.942249 -10726.707328,17429.724309 -10827.537669,17449.402588 -10921.340814,17504.002705 -11015.128369,17443.719923 -11224.832657,17494.380820 -11539.944864,17555.613973 -11738.655638,17641.742611 -11844.575012,17698.120808 -12004.968012,17776.412866 -12151.189504,17912.578990 -12292.741522,17981.702091 -12401.384967,18066.783550 -12426.684546,18232.049649 -12420.981800,18350.926059 -12481.041976,18447.577666 -12513.868849,18568.107513 -12655.037402,18533.789988 -12789.921652,18608.816972 -12886.293878,18571.965408 -12985.654354,18658.585245 -13163.902618,18708.424133 -13354.968438,18765.755279 -13606.075596,18868.942559 -13728.162400,18825.062016 -13860.554693,18807.416668 -13951.389996,18857.019183 -14113.342968,18798.614457 -14158.507741,18825.054703 -14203.128308,18913.579547 -14243.898428,18988.365478 -14320.527038,18981.866720 -14345.429114,19030.262406 -14267.555402,19117.257340 -14186.775487,19207.997501 -14185.829688,19365.817193 -14301.208958,19423.485047 -14464.923352,19603.551247 -14483.965105,19763.731963 -14491.031242,19826.712302 -14533.233943,19941.247683 -14568.679412,20043.853189 -14520.267816,20106.626518 -14428.706051,20115.225816 -14391.516063,20172.258888 -14420.659305,20271.516070 -14490.807517,20347.712223 -14684.901873,20400.042535 -14725.683562,20501.577084 -14714.699899,20665.937545 -14664.679020,20797.272892 -14597.012381,20822.071429 -14411.374096,20726.173645 -14327.089036,20700.758768 -14303.295074,20802.405268 -14304.346750,20946.662072 -14253.282799,21056.233970 -14144.503991,21059.370972 -14021.250111,20925.022682 -13923.161397,20923.296681 -13813.821884,21102.881523 -13762.460746,21299.262066 -13771.115505,21396.205459 -13741.597337,21454.842981 -13633.095916,21458.511272 -13579.031822,21408.429059 -13489.809633,21305.122617 -13360.963159,21299.674303 -13267.527352,21343.920211 -13247.953449,21487.989422 -13295.478601,21628.134804 -13250.256652,21912.592138 -13336.196472,22172.991063 -13404.776366,22250.123190 -13450.130348,22344.605045 -13441.075942,22465.879222 -13455.786145,22629.835785 -13494.247068,22735.774503 -13555.100933,22985.623895 -13611.683783,23024.053331"/>
    <poly id="1210976885" type="leisure.sports_centre" color="207,245,201" fill="1" layer="-2.00" shape="2624.884627,2417.215106 2618.634276,2503.766716 2668.492180,2507.320970 2674.720797,2420.769211 2624.884627,2417.215106"/>
    <poly id="1210976885#1" type="sport.swimming" color="79,230,125" fill="1" layer="-2.00" shape="2624.884627,2417.215106 2618.634276,2503.766716 2668.492180,2507.320970 2674.720797,2420.769211 2624.884627,2417.215106"/>
    <poly id="1256941484" type="building.yes" color="255,230,230" fill="1" layer="-1.00" shape="2672.454854,2532.724571 2619.294545,2529.238094 2614.278593,2549.728665 2639.335590,2553.746865 2638.411575,2561.606928 2591.122026,2556.497854 2589.507704,2568.081848 2585.466140,2581.398586 2584.491379,2595.608543 2582.875740,2607.402726 2685.150431,2619.627402 2686.568092,2602.798266 2687.112366,2587.501420 2689.384046,2575.711351 2690.789316,2562.599338 2644.562913,2562.309303 2643.740431,2553.984697 2675.424001,2556.152709 2672.454854,2532.724571"/>
    <poly id="1256941484#1" type="tourism.hostel" color="207,245,201" fill="1" layer="-2.00" shape="2672.454854,2532.724571 2619.294545,2529.238094 2614.278593,2549.728665 2639.335590,2553.746865 2638.411575,2561.606928 2591.122026,2556.497854 2589.507704,2568.081848 2585.466140,2581.398586 2584.491379,2595.608543 2582.875740,2607.402726 2685.150431,2619.627402 2686.568092,2602.798266 2687.112366,2587.501420 2689.384046,2575.711351 2690.789316,2562.599338 2644.562913,2562.309303 2643.740431,2553.984697 2675.424001,2556.152709 2672.454854,2532.724571"/>
    <poly id="128964693" type="amenity.university" color="237,199,199" fill="1" layer="-1.00" shape="2154.407598,2431.835693 2000.962504,2339.107752 2003.149696,2237.617912 2008.661137,2101.090046 2196.261919,2148.883183 2201.185831,2111.609345 2205.942018,2069.687969 2219.470860,1969.530204 2164.405758,1957.536275 2108.304429,1941.641768 2105.608655,1923.370865 2065.775762,1919.924557 2077.024829,1817.075295 2113.245321,1815.963151 2113.723741,1839.121120 2173.375147,1836.374430 2239.078819,1834.462256 2241.385018,1817.129802 2244.367591,1794.801076 2249.036599,1759.826756 2256.321630,1705.187613 2403.266751,1655.991690 2620.263954,1659.685421 2769.773297,1658.565145 2775.764258,1491.361931 2837.120006,1495.950774 2832.606968,1664.557256 3180.914256,1681.934175 3219.503141,1693.748754 3256.855378,1723.123848 3291.831076,1758.314317 3322.101534,1795.798499 3347.240819,1832.022434 3464.939492,2001.630791 3457.008643,2024.791327 3451.081736,2177.735082 3263.425485,2171.896587 3234.509451,2390.233578 3226.884073,2418.750604 3263.890760,2502.897242 3265.717155,2584.499315 3260.146665,2724.324354 3217.291337,2824.286636 2985.195670,2797.182754 2872.451405,2785.986514 2830.252552,2779.891209 2799.774142,2777.365494 2783.563663,2774.940455 2497.497215,2749.835602 2505.514321,2561.072189 2442.199121,2557.179373 2352.552477,2551.993279 2312.729698,2527.847589 2271.338346,2502.751774 2214.501479,2468.277415 2154.407598,2431.835693"/>
    <poly id="380702787" type="leisure.swimming_pool" color="207,245,201" fill="1" layer="-2.00" shape="2631.673798,2481.832955 2656.548481,2483.548892 2659.984899,2434.240118 2635.121110,2432.524253 2631.673798,2481.832955"/>
    <poly id="380702789" type="building.university" color="255,230,230" fill="1" layer="-1.00" shape="2538.439037,2157.719389 2577.127252,2162.331835 2577.756016,2156.217890 2581.850609,2157.117545 2583.093530,2145.475907 2599.502930,2147.614397 2598.265414,2158.393148 2602.075735,2159.291023 2601.157241,2164.529167 2634.560883,2169.694892 2632.696453,2186.288898 2616.889178,2184.032470 2598.416344,2181.405317 2597.191590,2190.148540 2631.765161,2195.310539 2627.416617,2233.163288 2584.630223,2228.237432 2582.738418,2249.201184 2624.059696,2254.117854 2620.600376,2291.400899 2697.070757,2303.828702 2694.630527,2318.084784 2663.871066,2313.234260 2662.939793,2320.507933 2654.160242,2318.704894 2655.086061,2310.557202 2622.568176,2305.396985 2623.492183,2297.536923 2613.234801,2296.012268 2616.644691,2268.353802 2567.121535,2261.925387 2570.846752,2227.564670 2532.169548,2222.952287 2533.734840,2206.975942 2533.933815,2204.886266 2534.144695,2202.641782 2535.304292,2190.335838 2538.439037,2157.719389"/>
    <poly id="380702790" type="amenity.library" color="237,199,199" fill="1" layer="-1.00" shape="2626.280661,2274.819761 2650.004402,2278.763192 2651.848792,2265.366293 2655.659100,2266.264177 2653.812905,2279.948704 2669.926965,2282.096452 2672.068371,2268.413776 2675.581670,2269.597439 2674.034349,2282.697498 2696.588201,2286.633626 2700.555706,2262.474592 2686.488003,2260.052027 2687.401029,2255.687833 2695.932933,2249.911106 2689.819427,2243.168519 2690.440857,2238.227214 2703.923711,2239.761063 2707.597820,2215.312548 2684.730423,2212.547142 2683.518484,2219.243774 2675.906986,2217.735701 2676.836487,2209.001688 2682.144785,2204.665064 2682.229508,2203.360151 2682.303367,2202.044106 2678.088572,2197.647746 2674.461281,2197.204596 2669.282609,2196.563644 2664.065805,2200.259184 2663.974838,2202.559737 2666.590040,2205.729121 2669.386006,2207.970340 2667.998410,2216.524470 2660.375978,2215.016332 2661.004759,2208.902386 2637.858568,2205.261281 2634.784080,2228.253228 2647.379450,2230.080190 2646.171127,2236.201564 2639.687473,2241.404805 2644.627496,2248.715301 2643.710798,2253.665817 2629.648545,2252.117295 2626.280661,2274.819761"/>
    <poly id="380702790#1" type="building.yes" color="255,230,230" fill="1" layer="-1.00" shape="2626.280661,2274.819761 2650.004402,2278.763192 2651.848792,2265.366293 2655.659100,2266.264177 2653.812905,2279.948704 2669.926965,2282.096452 2672.068371,2268.413776 2675.581670,2269.597439 2674.034349,2282.697498 2696.588201,2286.633626 2700.555706,2262.474592 2686.488003,2260.052027 2687.401029,2255.687833 2695.932933,2249.911106 2689.819427,2243.168519 2690.440857,2238.227214 2703.923711,2239.761063 2707.597820,2215.312548 2684.730423,2212.547142 2683.518484,2219.243774 2675.906986,2217.735701 2676.836487,2209.001688 2682.144785,2204.665064 2682.229508,2203.360151 2682.303367,2202.044106 2678.088572,2197.647746 2674.461281,2197.204596 2669.282609,2196.563644 2664.065805,2200.259184 2663.974838,2202.559737 2666.590040,2205.729121 2669.386006,2207.970340 2667.998410,2216.524470 2660.375978,2215.016332 2661.004759,2208.902386 2637.858568,2205.261281 2634.784080,2228.253228 2647.379450,2230.080190 2646.171127,2236.201564 2639.687473,2241.404805 2644.627496,2248.715301 2643.710798,2253.665817 2629.648545,2252.117295 2626.280661,2274.819761"/>
    <poly id="380702791" type="building.yes" color="255,230,230" fill="1" layer="-1.00" shape="2693.427674,2135.093668 2788.122978,2140.931710 2795.160683,2047.448440 2698.712127,2042.174709 2693.427674,2135.093668"/>
    <poly id="380702791#1" type="tourism.hostel" color="207,245,201" fill="1" layer="-2.00" shape="2693.427674,2135.093668 2788.122978,2140.931710 2795.160683,2047.448440 2698.712127,2042.174709 2693.427674,2135.093668"/>
    <poly id="380702792" type="building.university" color="255,230,230" fill="1" layer="-1.00" shape="2768.020346,2026.877786 2794.982521,2028.794938 2796.962265,1993.836908 2769.699371,1992.791857 2768.020346,2026.877786"/>
    <poly id="380702793" type="leisure.pitch" color="207,245,201" fill="1" layer="-2.00" shape="2799.948101,2032.034397 2822.813861,2033.339522 2825.107102,1995.473860 2801.944304,1994.454515 2799.948101,2032.034397"/>
    <poly id="380702793#1" type="sport.basketball" color="79,230,125" fill="1" layer="-2.00" shape="2799.948101,2032.034397 2822.813861,2033.339522 2825.107102,1995.473860 2801.944304,1994.454515 2799.948101,2032.034397"/>
    <poly id="380702796" type="building.university" color="255,230,230" fill="1" layer="-1.00" shape="2758.837707,1946.402528 2769.397766,1946.756420 2769.366672,1951.712493 2776.407913,1951.756670 2777.078807,1937.190781 2759.488503,1936.781717 2758.837707,1946.402528"/>
    <poly id="380702797" type="building.university" color="255,230,230" fill="1" layer="-1.00" shape="2783.478447,1947.132406 2794.320906,1947.786783 2794.288003,1953.030485 2801.906921,1953.365933 2802.891256,1937.640384 2784.125535,1936.361010 2783.478447,1947.132406"/>
    <poly id="380702798" type="building.university" color="255,230,230" fill="1" layer="-1.00" shape="2828.456860,1975.680871 2841.646426,1976.925277 2842.623421,1962.372368 2829.433919,1961.116901 2828.456860,1975.680871"/>
    <poly id="380702799" type="building.university" color="255,230,230" fill="1" layer="-1.00" shape="2829.199045,1951.501593 2843.562127,1952.178081 2844.550161,1935.866209 2829.875447,1936.061751 2829.199045,1951.501593"/>
    <poly id="380702800" type="building.apartments" color="255,230,230" fill="1" layer="-1.00" shape="2783.943676,1918.293832 2809.746978,1920.203709 2810.718576,1904.765720 2784.629183,1903.141690 2783.943676,1918.293832"/>
    <poly id="380702801" type="building.apartments" color="255,230,230" fill="1" layer="-1.00" shape="2817.367709,1920.251530 2842.582402,1921.870100 2843.552211,1906.719739 2818.049553,1905.685708 2817.367709,1920.251530"/>
    <poly id="380702802" type="building.apartments" color="255,230,230" fill="1" layer="-1.00" shape="2784.975546,1894.990361 2800.508617,1895.663103 2801.848477,1870.325954 2786.302655,1869.940773 2784.975546,1894.990361"/>
    <poly id="380702803" type="building.apartments" color="255,230,230" fill="1" layer="-1.00" shape="2811.374801,1894.282021 2826.324712,1895.537460 2827.336513,1873.694189 2812.386660,1872.427688 2811.374801,1894.282021"/>