<?xml version="1.0" encoding="UTF-8"?>

<!-- generated on 2025-03-26 17:10:49 by Eclipse SUMO netconvert Version 1.22.0
<netconvertConfiguration xmlns:xsi="http://www.w3.org/2001/XMLSchema-instance" xsi:noNamespaceSchemaLocation="http://sumo.dlr.de/xsd/netconvertConfiguration.xsd">

    <input>
        <type-files value="/usr/share/sumo/data/typemap/osmNetconvert.typ.xml,/usr/share/sumo/data/typemap/osmNetconvertUrbanDe.typ.xml,/usr/share/sumo/data/typemap/osmNetconvertPedestrians.typ.xml"/>
        <osm-files value="osm_bbox.osm.xml"/>
    </input>

    <output>
        <output-file value="osm.net.xml"/>
        <output.street-names value="true"/>
        <output.original-names value="true"/>
    </output>

    <projection>
        <proj.utm value="true"/>
    </projection>

    <processing>
        <geometry.remove value="true"/>
        <roundabouts.guess value="true"/>
    </processing>

    <tls_building>
        <tls.discard-simple value="true"/>
        <tls.join value="true"/>
        <tls.guess-signals value="true"/>
        <tls.default-type value="actuated"/>
    </tls_building>

    <ramp_guessing>
        <ramps.guess value="true"/>
    </ramp_guessing>

    <junctions>
        <junctions.join value="true"/>
        <junctions.corner-detail value="5"/>
    </junctions>

    <pedestrian>
        <crossings.guess value="true"/>
    </pedestrian>

    <report>
        <verbose value="true"/>
    </report>

</netconvertConfiguration>
-->

<net version="1.20" junctionCornerDetail="5" walkingareas="true" limitTurnSpeed="5.50" xmlns:xsi="http://www.w3.org/2001/XMLSchema-instance" xsi:noNamespaceSchemaLocation="http://sumo.dlr.de/xsd/net_file.xsd">

    <location netOffset="-704899.76,-1203871.70" convBoundary="0.00,0.00,7083.72,2693.15" origBoundary="76.874581,10.884771,76.939466,10.908963" projParameter="+proj=utm +zone=43 +ellps=WGS84 +datum=WGS84 +units=m +no_defs"/>

    <type id="highway.footway" priority="1" numLanes="1" speed="2.78" allow="pedestrian" oneway="1" width="2.00"/>
    <type id="highway.residential" priority="3" numLanes="1" speed="13.89" disallow="pedestrian tram rail_urban rail rail_electric rail_fast ship container cable_car subway aircraft wheelchair scooter drone" oneway="0" sidewalkWidth="2.00"/>
    <type id="highway.unclassified" priority="4" numLanes="1" speed="13.89" disallow="pedestrian tram rail_urban rail rail_electric rail_fast ship container cable_car subway aircraft wheelchair scooter drone" oneway="0" sidewalkWidth="2.00"/>
    <type id="railway.rail" priority="20" numLanes="1" speed="44.44" allow="rail" oneway="1"/>

    <edge id=":1423798471_0" function="internal">
        <lane id=":1423798471_0_0" index="0" disallow="pedestrian tram rail_urban rail rail_electric rail_fast ship container cable_car subway aircraft wheelchair scooter drone" speed="13.89" length="6.78" shape="2781.17,1591.51 2781.22,1598.28"/>
    </edge>
    <edge id=":1423798471_1" function="internal">
        <lane id=":1423798471_1_0" index="0" allow="rail rail_electric rail_fast" speed="44.44" length="13.57" shape="2772.86,1594.74 2786.41,1595.31"/>
    </edge>
    <edge id=":1423798471_2" function="internal">
        <lane id=":1423798471_2_0" index="0" disallow="pedestrian tram rail_urban rail rail_electric rail_fast ship container cable_car subway aircraft wheelchair scooter drone" speed="13.89" length="6.63" shape="2778.02,1598.23 2777.97,1591.60"/>
    </edge>
    <edge id=":1423798471_c0" function="crossing" crossingEdges="128964718#1">
        <lane id=":1423798471_c0_0" index="0" allow="pedestrian" speed="2.78" length="3.20" width="4.00" shape="2784.48,1593.62 2784.35,1596.82" outlineShape="2786.48,1593.71 2786.34,1596.91 2782.82,1598.31 2784.82,1598.34 2786.34,1596.91 2782.35,1596.73 2782.49,1593.54 2782.78,1591.50 2782.92,1592.37 2783.28,1592.99 2783.84,1593.36 2784.57,1593.57 2785.46,1593.66"/>
    </edge>
    <edge id=":1423798471_c1" function="crossing" crossingEdges="-128964701#0 128964701#0">
        <lane id=":1423798471_c1_0" index="0" allow="pedestrian" speed="2.78" length="6.40" width="4.00" shape="2776.43,1593.65 2782.83,1593.46" outlineShape="2776.37,1591.65 2782.77,1591.46 2782.92,1592.37 2783.28,1592.99 2783.84,1593.36 2784.57,1593.57 2785.08,1593.62 2782.89,1595.46 2776.49,1595.65 2774.54,1593.21 2774.66,1593.21 2775.37,1593.13 2775.92,1592.89 2776.27,1592.42"/>
    </edge>
    <edge id=":1423798471_c2" function="crossing" crossingEdges="128964718#0">
        <lane id=":1423798471_c2_0" index="0" allow="pedestrian" speed="2.78" length="3.20" width="4.00" shape="2774.79,1596.42 2774.92,1593.23" outlineShape="2772.79,1596.34 2772.92,1593.15 2776.37,1591.65 2774.37,1591.71 2772.92,1593.15 2776.92,1593.30 2776.79,1596.50 2776.42,1598.20 2776.31,1597.36 2775.95,1596.83 2775.38,1596.54 2774.65,1596.41 2773.77,1596.37"/>
    </edge>
    <edge id=":1423798471_c3" function="crossing" crossingEdges="128964701#1 -128964701#1">
        <lane id=":1423798471_c3_0" index="0" allow="pedestrian" speed="2.78" length="6.40" width="4.00" shape="2782.85,1596.31 2776.45,1596.20" outlineShape="2782.82,1598.31 2776.42,1598.20 2776.31,1597.36 2775.95,1596.83 2775.38,1596.54 2774.65,1596.41 2774.38,1596.40 2776.49,1594.20 2782.89,1594.31 2784.77,1596.82 2784.60,1596.81 2783.88,1596.87 2783.33,1597.08 2782.96,1597.54"/>
    </edge>
    <edge id=":1423798471_w0" function="walkingarea">
        <lane id=":1423798471_w0_0" index="0" allow="pedestrian" speed="2.78" length="2.07" width="4.00" shape="2786.48,1593.71 2784.77,1591.40 2782.77,1591.46 2782.92,1592.37 2783.28,1592.99 2783.84,1593.36 2784.57,1593.57 2785.46,1593.66"/>
    </edge>
    <edge id=":1423798471_w1" function="walkingarea">
        <lane id=":1423798471_w1_0" index="0" allow="pedestrian" speed="2.78" length="1.81" width="4.00" shape="2776.37,1591.65 2774.37,1591.71 2772.92,1593.15 2773.83,1593.19 2774.66,1593.21 2775.37,1593.13 2775.92,1592.89 2776.27,1592.42"/>
    </edge>
    <edge id=":1423798471_w2" function="walkingarea">
        <lane id=":1423798471_w2_0" index="0" allow="pedestrian" speed="2.78" length="1.93" width="4.00" shape="2772.79,1596.34 2774.42,1598.17 2776.42,1598.20 2776.31,1597.36 2775.95,1596.83 2775.38,1596.54 2774.65,1596.41 2773.77,1596.37"/>
    </edge>
    <edge id=":1423798471_w3" function="walkingarea">
        <lane id=":1423798471_w3_0" index="0" allow="pedestrian" speed="2.78" length="1.80" width="4.00" shape="2782.82,1598.31 2784.82,1598.34 2786.34,1596.91 2785.43,1596.85 2784.60,1596.81 2783.88,1596.87 2783.33,1597.08 2782.96,1597.54"/>
    </edge>
    <edge id=":3190327339_0" function="internal">
        <lane id=":3190327339_0_0" index="0" disallow="pedestrian tram rail_urban rail rail_electric rail_fast ship container cable_car subway aircraft wheelchair scooter drone" speed="13.89" length="11.73" shape="2587.54,2057.52 2584.06,2057.27 2581.62,2057.20 2579.29,2057.64 2576.10,2058.91"/>
    </edge>
    <edge id=":3190327339_1" function="internal">
        <lane id=":3190327339_1_0" index="0" disallow="pedestrian tram rail_urban rail rail_electric rail_fast ship container cable_car subway aircraft wheelchair scooter drone" speed="7.89" length="4.36" shape="2587.54,2057.52 2583.39,2056.70 2583.28,2056.61"/>
    </edge>
    <edge id=":3190327339_2" function="internal">
        <lane id=":3190327339_2_0" index="0" disallow="pedestrian tram rail_urban rail rail_electric rail_fast ship container cable_car subway aircraft wheelchair scooter drone" speed="3.65" length="1.44" shape="2587.54,2057.52 2586.38,2056.66"/>
    </edge>
    <edge id=":3190327339_9" function="internal">
        <lane id=":3190327339_9_0" index="0" disallow="pedestrian tram rail_urban rail rail_electric rail_fast ship container cable_car subway aircraft wheelchair scooter drone" speed="7.89" length="10.78" shape="2583.28,2056.61 2580.68,2054.74 2579.41,2051.64 2579.58,2047.42"/>
    </edge>
    <edge id=":3190327339_10" function="internal">
        <lane id=":3190327339_10_0" index="0" disallow="pedestrian tram rail_urban rail rail_electric rail_fast ship container cable_car subway aircraft wheelchair scooter drone" speed="3.65" length="3.23" shape="2586.38,2056.66 2586.02,2055.84 2586.47,2055.06 2587.71,2054.33"/>
    </edge>
    <edge id=":3190327339_3" function="internal">
        <lane id=":3190327339_3_0" index="0" disallow="pedestrian tram rail_urban rail rail_electric rail_fast ship container cable_car subway aircraft wheelchair scooter drone" speed="6.37" length="9.48" shape="2582.73,2048.00 2582.62,2050.65 2583.42,2052.58 2585.11,2053.81 2587.71,2054.33"/>
    </edge>
    <edge id=":3190327339_4" function="internal">
        <lane id=":3190327339_4_0" index="0" disallow="pedestrian tram rail_urban rail rail_electric rail_fast ship container cable_car subway aircraft wheelchair scooter drone" speed="10.43" length="13.24" shape="2582.73,2048.00 2581.71,2051.91 2580.27,2055.03 2578.40,2057.37 2576.10,2058.91"/>
    </edge>
    <edge id=":3190327339_5" function="internal">
        <lane id=":3190327339_5_0" index="0" disallow="pedestrian tram rail_urban rail rail_electric rail_fast ship container cable_car subway aircraft wheelchair scooter drone" speed="3.65" length="4.67" shape="2582.73,2048.00 2581.72,2049.04 2580.86,2049.28 2580.15,2048.75 2579.58,2047.42"/>
    </edge>
    <edge id=":3190327339_6" function="internal">
        <lane id=":3190327339_6_0" index="0" disallow="pedestrian tram rail_urban rail rail_electric rail_fast ship container cable_car subway aircraft wheelchair scooter drone" speed="9.20" length="6.16" shape="2574.77,2056.00 2576.39,2054.86 2577.73,2053.05 2578.49,2051.29"/>
    </edge>
    <edge id=":3190327339_7" function="internal">
        <lane id=":3190327339_7_0" index="0" disallow="pedestrian tram rail_urban rail rail_electric rail_fast ship container cable_car subway aircraft wheelchair scooter drone" speed="13.89" length="13.28" shape="2574.77,2056.00 2578.38,2054.55 2581.02,2054.02 2583.77,2054.06 2587.71,2054.33"/>
    </edge>
    <edge id=":3190327339_8" function="internal">
        <lane id=":3190327339_8_0" index="0" disallow="pedestrian tram rail_urban rail rail_electric rail_fast ship container cable_car subway aircraft wheelchair scooter drone" speed="3.65" length="1.44" shape="2574.77,2056.00 2576.19,2056.23"/>
    </edge>
    <edge id=":3190327339_11" function="internal">
        <lane id=":3190327339_11_0" index="0" disallow="pedestrian tram rail_urban rail rail_electric rail_fast ship container cable_car subway aircraft wheelchair scooter drone" speed="9.20" length="4.03" shape="2578.49,2051.29 2578.80,2050.57 2579.58,2047.42"/>
    </edge>
    <edge id=":3190327339_12" function="internal">
        <lane id=":3190327339_12_0" index="0" disallow="pedestrian tram rail_urban rail rail_electric rail_fast ship container cable_car subway aircraft wheelchair scooter drone" speed="3.65" length="3.23" shape="2576.19,2056.23 2576.89,2056.79 2576.85,2057.68 2576.10,2058.91"/>
    </edge>
    <edge id=":3190327339_c0" function="crossing" crossingEdges="-313120155#1 313120155#1">
        <lane id=":3190327339_c0_0" index="0" allow="pedestrian" speed="2.78" length="6.40" width="4.00" shape="2585.80,2052.62 2585.45,2059.01" outlineShape="2587.79,2052.73 2587.45,2059.12 2585.13,2058.96 2583.46,2058.82 2583.80,2052.51 2584.31,2050.46 2584.34,2050.66 2584.78,2051.51 2585.51,2052.13 2586.51,2052.54"/>
    </edge>
    <edge id=":3190327339_c1" function="crossing" crossingEdges="-528938318 528938318">
        <lane id=":3190327339_c1_0" index="0" allow="pedestrian" speed="2.78" length="6.40" width="4.00" shape="2577.64,2049.10 2583.94,2050.26" outlineShape="2578.01,2047.13 2584.30,2048.29 2584.18,2049.59 2584.34,2050.66 2584.78,2051.51 2585.51,2052.13 2585.69,2052.21 2583.57,2052.23 2577.28,2051.06 2576.93,2051.00 2577.07,2050.69 2577.58,2049.04"/>
    </edge>
    <edge id=":3190327339_c2" function="crossing" crossingEdges="313120155#2 -313120155#2">
        <lane id=":3190327339_c2_0" index="0" allow="pedestrian" speed="2.78" length="6.40" width="4.00" shape="2578.58,2059.54 2575.92,2053.71" outlineShape="2576.76,2060.37 2574.10,2054.54 2574.06,2054.45 2574.10,2054.54 2574.98,2053.99 2575.77,2053.16 2576.46,2052.06 2576.91,2051.05 2580.53,2058.98 2578.88,2059.48"/>
    </edge>
    <edge id=":3190327339_w0" function="walkingarea">
        <lane id=":3190327339_w0_0" index="0" allow="pedestrian" speed="2.78" length="6.51" width="4.00" shape="2576.76,2060.37 2577.59,2062.19 2587.34,2061.12 2587.45,2059.12 2585.13,2058.96 2583.38,2058.82 2581.93,2058.80 2580.51,2058.99 2578.88,2059.48"/>
    </edge>
    <edge id=":3190327339_w1" function="walkingarea">
        <lane id=":3190327339_w1_0" index="0" allow="pedestrian" speed="2.78" length="3.33" width="4.00" shape="2587.79,2052.73 2587.90,2050.73 2586.27,2048.66 2584.30,2048.29 2584.18,2049.59 2584.34,2050.66 2584.78,2051.51 2585.51,2052.13 2586.51,2052.54"/>
    </edge>
    <edge id=":3190327339_w2" function="walkingarea">
        <lane id=":3190327339_w2_0" index="0" allow="pedestrian" speed="2.78" length="4.96" width="4.00" shape="2578.01,2047.13 2576.04,2046.76 2573.27,2052.72 2574.10,2054.54 2574.98,2053.99 2575.77,2053.16 2576.46,2052.06 2577.07,2050.69 2577.58,2049.04"/>
    </edge>
    <edge id=":3190327341_0" function="internal">
        <lane id=":3190327341_0_0" index="0" disallow="pedestrian tram rail_urban rail rail_electric rail_fast ship container cable_car subway aircraft wheelchair scooter drone" speed="13.89" length="16.11" shape="2552.51,2093.53 2536.46,2092.15"/>
    </edge>
    <edge id=":3190327341_1" function="internal">
        <lane id=":3190327341_1_0" index="0" disallow="pedestrian tram rail_urban rail rail_electric rail_fast ship container cable_car subway aircraft wheelchair scooter drone" speed="7.82" length="4.88" shape="2552.51,2093.53 2547.76,2092.41"/>
    </edge>
    <edge id=":3190327341_2" function="internal">
        <lane id=":3190327341_2_0" index="0" disallow="pedestrian tram rail_urban rail rail_electric rail_fast ship container cable_car subway aircraft wheelchair scooter drone" speed="3.65" length="1.44" shape="2552.51,2093.53 2551.40,2092.62"/>
    </edge>
    <edge id=":3190327341_9" function="internal">
        <lane id=":3190327341_9_0" index="0" disallow="pedestrian tram rail_urban rail rail_electric rail_fast ship container cable_car subway aircraft wheelchair scooter drone" speed="7.82" length="14.57" shape="2547.76,2092.41 2546.76,2092.18 2543.95,2089.59 2544.09,2085.78 2547.17,2080.74"/>
    </edge>
    <edge id=":3190327341_10" function="internal">
        <lane id=":3190327341_10_0" index="0" disallow="pedestrian tram rail_urban rail rail_electric rail_fast ship container cable_car subway aircraft wheelchair scooter drone" speed="3.65" length="3.23" shape="2551.40,2092.62 2551.08,2091.78 2551.56,2091.02 2552.84,2090.35"/>
    </edge>
    <edge id=":3190327341_3" function="internal">
        <lane id=":3190327341_3_0" index="0" disallow="pedestrian tram rail_urban rail rail_electric rail_fast ship container cable_car subway aircraft wheelchair scooter drone" speed="6.17" length="11.56" shape="2549.67,2082.75 2547.83,2085.74 2547.75,2088.01 2549.42,2089.55 2552.84,2090.35"/>
    </edge>
    <edge id=":3190327341_4" function="internal">
        <lane id=":3190327341_4_0" index="0" disallow="pedestrian tram rail_urban rail rail_electric rail_fast ship container cable_car subway aircraft wheelchair scooter drone" speed="11.85" length="16.69" shape="2549.67,2082.75 2545.93,2086.95 2542.48,2089.92 2539.32,2091.66 2536.46,2092.15"/>
    </edge>
    <edge id=":3190327341_5" function="internal">
        <lane id=":3190327341_5_0" index="0" disallow="pedestrian tram rail_urban rail rail_electric rail_fast ship container cable_car subway aircraft wheelchair scooter drone" speed="3.65" length="4.67" shape="2549.67,2082.75 2548.29,2083.18 2547.42,2082.99 2547.04,2082.18 2547.17,2080.74"/>
    </edge>
    <edge id=":3190327341_6" function="internal">
        <lane id=":3190327341_6_0" index="0" disallow="pedestrian tram rail_urban rail rail_electric rail_fast ship container cable_car subway aircraft wheelchair scooter drone" speed="10.78" length="9.72" shape="2536.60,2088.96 2538.69,2088.51 2541.15,2086.99 2543.98,2084.40 2544.54,2083.76"/>
    </edge>
    <edge id=":3190327341_7" function="internal">
        <lane id=":3190327341_7_0" index="0" disallow="pedestrian tram rail_urban rail rail_electric rail_fast ship container cable_car subway aircraft wheelchair scooter drone" speed="13.89" length="16.30" shape="2536.60,2088.96 2552.84,2090.35"/>
    </edge>
    <edge id=":3190327341_8" function="internal">
        <lane id=":3190327341_8_0" index="0" disallow="pedestrian tram rail_urban rail rail_electric rail_fast ship container cable_car subway aircraft wheelchair scooter drone" speed="3.65" length="1.44" shape="2536.60,2088.96 2537.76,2089.81"/>
    </edge>
    <edge id=":3190327341_11" function="internal">
        <lane id=":3190327341_11_0" index="0" disallow="pedestrian tram rail_urban rail rail_electric rail_fast ship container cable_car subway aircraft wheelchair scooter drone" speed="10.78" length="4.00" shape="2544.54,2083.76 2547.17,2080.74"/>
    </edge>
    <edge id=":3190327341_12" function="internal">
        <lane id=":3190327341_12_0" index="0" disallow="pedestrian tram rail_urban rail rail_electric rail_fast ship container cable_car subway aircraft wheelchair scooter drone" speed="3.65" length="3.23" shape="2537.76,2089.81 2538.13,2090.63 2537.69,2091.41 2536.46,2092.15"/>
    </edge>
    <edge id=":3190327341_c0" function="crossing" crossingEdges="546394554 -546394554">
        <lane id=":3190327341_c0_0" index="0" allow="pedestrian" speed="2.78" length="6.40" width="4.00" shape="2551.01,2088.56 2550.36,2094.92" outlineShape="2553.00,2088.76 2552.35,2095.13 2552.34,2095.23 2548.37,2094.72 2549.02,2088.35 2549.56,2086.33 2549.65,2087.22 2550.26,2087.95 2551.37,2088.46"/>
    </edge>
    <edge id=":3190327341_c1" function="crossing" crossingEdges="-313120155#2 313120155#2">
        <lane id=":3190327341_c1_0" index="0" allow="pedestrian" speed="2.78" length="6.40" width="4.00" shape="2544.67,2081.29 2549.66,2085.31" outlineShape="2545.93,2079.74 2550.91,2083.75 2549.98,2085.12 2549.56,2086.28 2549.65,2087.22 2550.22,2087.91 2548.40,2086.87 2543.42,2082.85 2543.31,2082.77 2543.94,2082.10"/>
    </edge>
    <edge id=":3190327341_c2" function="crossing" crossingEdges="313120155#3 -313120155#3">
        <lane id=":3190327341_c2_0" index="0" allow="pedestrian" speed="2.78" length="6.40" width="4.00" shape="2538.38,2093.84 2538.67,2087.45" outlineShape="2536.39,2093.75 2536.67,2087.36 2537.76,2087.18 2539.04,2086.57 2540.49,2085.52 2540.77,2085.27 2540.38,2093.93 2536.39,2093.75 2536.30,2095.75 2552.14,2097.12 2552.35,2095.13 2548.37,2094.72 2540.38,2093.93"/>
    </edge>
    <edge id=":3190327341_w0" function="walkingarea">
        <lane id=":3190327341_w0_0" index="0" allow="pedestrian" speed="2.78" length="10.09" width="4.00" shape="2540.38,2093.93 2536.39,2093.75 2536.30,2095.75 2552.14,2097.12 2552.35,2095.13 2548.37,2094.72"/>
    </edge>
    <edge id=":3190327341_w1" function="walkingarea">
        <lane id=":3190327341_w1_0" index="0" allow="pedestrian" speed="2.78" length="3.35" width="4.00" shape="2553.00,2088.76 2553.20,2086.77 2552.47,2085.01 2550.91,2083.75 2549.98,2085.12 2549.56,2086.28 2549.65,2087.22 2550.26,2087.95 2551.37,2088.46"/>
    </edge>
    <edge id=":3190327341_w2" function="walkingarea">
        <lane id=":3190327341_w2_0" index="0" allow="pedestrian" speed="2.78" length="7.36" width="4.00" shape="2545.93,2079.74 2544.37,2078.48 2536.76,2085.36 2536.67,2087.36 2537.76,2087.18 2539.04,2086.57 2540.49,2085.52 2542.12,2084.03 2543.94,2082.10"/>
    </edge>
    <edge id=":3840257449_0" function="internal">
        <lane id=":3840257449_0_0" index="0" disallow="pedestrian tram rail_urban rail rail_electric rail_fast ship container cable_car subway aircraft wheelchair scooter drone" speed="13.89" length="15.09" shape="2731.32,2564.99 2730.95,2569.46 2730.62,2572.50 2730.15,2575.53 2729.36,2579.94"/>
    </edge>
    <edge id=":3840257449_1" function="internal">
        <lane id=":3840257449_1_0" index="0" disallow="pedestrian tram rail_urban rail rail_electric rail_fast ship container cable_car subway aircraft wheelchair scooter drone" speed="8.06" length="14.60" shape="2731.32,2564.99 2730.44,2568.83 2728.49,2571.44 2725.47,2572.82 2721.38,2572.99"/>
    </edge>
    <edge id=":3840257449_2" function="internal">
        <lane id=":3840257449_2_0" index="0" disallow="pedestrian tram rail_urban rail rail_electric rail_fast ship container cable_car subway aircraft wheelchair scooter drone" speed="3.65" length="4.67" shape="2731.32,2564.99 2730.43,2566.12 2729.60,2566.46 2728.84,2566.00 2728.13,2564.74"/>
    </edge>
    <edge id=":3840257449_3" function="internal">
        <lane id=":3840257449_3_0" index="0" disallow="pedestrian tram rail_urban rail rail_electric rail_fast ship container cable_car subway aircraft wheelchair scooter drone" speed="6.58" length="5.06" shape="2721.69,2569.80 2724.34,2569.70 2726.30,2568.83 2726.46,2568.62"/>
    </edge>
    <edge id=":3840257449_4" function="internal">
        <lane id=":3840257449_4_0" index="0" disallow="pedestrian tram rail_urban rail rail_electric rail_fast ship container cable_car subway aircraft wheelchair scooter drone" speed="7.93" length="14.79" shape="2721.69,2569.80 2725.68,2570.78 2728.28,2572.79 2729.51,2575.85 2729.36,2579.94"/>
    </edge>
    <edge id=":3840257449_5" function="internal">
        <lane id=":3840257449_5_0" index="0" disallow="pedestrian tram rail_urban rail rail_electric rail_fast ship container cable_car subway aircraft wheelchair scooter drone" speed="3.65" length="4.67" shape="2721.69,2569.80 2722.81,2570.71 2723.13,2571.55 2722.66,2572.31 2721.38,2572.99"/>
    </edge>
    <edge id=":3840257449_9" function="internal">
        <lane id=":3840257449_9_0" index="0" disallow="pedestrian tram rail_urban rail rail_electric rail_fast ship container cable_car subway aircraft wheelchair scooter drone" speed="6.58" length="4.32" shape="2726.46,2568.62 2727.56,2567.17 2728.13,2564.74"/>
    </edge>
    <edge id=":3840257449_6" function="internal">
        <lane id=":3840257449_6_0" index="0" disallow="pedestrian tram rail_urban rail rail_electric rail_fast ship container cable_car subway aircraft wheelchair scooter drone" speed="6.42" length="9.31" shape="2726.21,2579.37 2726.31,2576.79 2725.53,2574.87 2723.89,2573.60 2721.38,2572.99"/>
    </edge>
    <edge id=":3840257449_7" function="internal">
        <lane id=":3840257449_7_0" index="0" disallow="pedestrian tram rail_urban rail rail_electric rail_fast ship container cable_car subway aircraft wheelchair scooter drone" speed="13.89" length="14.77" shape="2726.21,2579.37 2726.99,2575.06 2727.45,2572.09 2727.77,2569.11 2728.13,2564.74"/>
    </edge>
    <edge id=":3840257449_8" function="internal">
        <lane id=":3840257449_8_0" index="0" disallow="pedestrian tram rail_urban rail rail_electric rail_fast ship container cable_car subway aircraft wheelchair scooter drone" speed="3.65" length="4.67" shape="2726.21,2579.37 2727.21,2578.34 2728.07,2578.08 2728.79,2578.62 2729.36,2579.94"/>
    </edge>
    <edge id=":3840257449_c0" function="crossing" crossingEdges="-85242111#2 85242111#2">
        <lane id=":3840257449_c0_0" index="0" allow="pedestrian" speed="2.78" length="6.40" width="4.00" shape="2726.38,2566.60 2732.76,2567.11" outlineShape="2726.54,2564.61 2732.92,2565.12 2734.58,2569.26 2734.65,2568.55 2734.91,2565.28 2733.02,2565.13 2732.60,2569.10 2726.22,2568.60 2724.15,2568.03 2724.31,2568.00 2725.21,2567.52 2725.88,2566.80 2726.32,2565.83"/>
    </edge>
    <edge id=":3840257449_c1" function="crossing" crossingEdges="380702781#0 -380702781#0">
        <lane id=":3840257449_c1_0" index="0" allow="pedestrian" speed="2.78" length="6.40" width="4.00" shape="2723.22,2574.77 2723.84,2568.40" outlineShape="2721.23,2574.58 2721.85,2568.21 2723.19,2568.23 2724.31,2568.00 2725.21,2567.52 2725.88,2566.80 2725.97,2566.58 2725.83,2568.60 2725.21,2574.97 2724.63,2577.01 2724.59,2576.76 2724.16,2575.91 2723.45,2575.26 2722.48,2574.82"/>
    </edge>
    <edge id=":3840257449_c2" function="crossing" crossingEdges="85242111#3 -85242111#3">
        <lane id=":3840257449_c2_0" index="0" allow="pedestrian" speed="2.78" length="6.40" width="4.00" shape="2731.29,2578.26 2724.99,2577.12" outlineShape="2730.93,2580.23 2724.64,2579.09 2724.54,2579.07 2724.64,2579.09 2724.75,2577.82 2724.59,2576.76 2724.16,2575.91 2723.45,2575.26 2723.22,2575.15 2725.35,2575.15 2731.65,2576.29 2731.51,2577.03"/>
    </edge>
    <edge id=":3840257449_w0" function="walkingarea">
        <lane id=":3840257449_w0_0" index="0" allow="pedestrian" speed="2.78" length="9.62" width="4.00" shape="2730.93,2580.23 2732.90,2580.59 2733.49,2577.35 2733.90,2574.95 2734.20,2572.97 2734.43,2570.98 2734.65,2568.55 2734.91,2565.28 2732.92,2565.12 2732.66,2568.35 2732.44,2570.75 2732.21,2572.71 2731.92,2574.67 2731.51,2577.03"/>
    </edge>
    <edge id=":3840257449_w1" function="walkingarea">
        <lane id=":3840257449_w1_0" index="0" allow="pedestrian" speed="2.78" length="3.46" width="4.00" shape="2726.54,2564.61 2724.55,2564.45 2722.04,2566.22 2721.85,2568.21 2723.19,2568.23 2724.31,2568.00 2725.21,2567.52 2725.88,2566.80 2726.32,2565.83"/>
    </edge>
    <edge id=":3840257449_w2" function="walkingarea">
        <lane id=":3840257449_w2_0" index="0" allow="pedestrian" speed="2.78" length="3.32" width="4.00" shape="2721.23,2574.58 2721.04,2576.57 2722.67,2578.73 2724.64,2579.09 2724.75,2577.82 2724.59,2576.76 2724.16,2575.91 2723.45,2575.26 2722.48,2574.82"/>
    </edge>
    <edge id=":3840257451_0" function="internal">
        <lane id=":3840257451_0_0" index="0" disallow="pedestrian tram rail_urban rail rail_electric rail_fast ship container cable_car subway aircraft wheelchair scooter drone" speed="3.65" length="4.67" shape="2700.60,2693.61 2699.49,2694.53 2698.61,2694.68 2697.95,2694.07 2697.54,2692.69"/>
    </edge>
    <edge id=":3840257451_w0" function="walkingarea">
        <lane id=":3840257451_w0_0" index="0" allow="pedestrian" speed="2.78" length="8.40" width="2.00" shape="2696.00,2692.23 2694.09,2691.65 2704.05,2694.65 2702.13,2694.08"/>
    </edge>
    <edge id=":3840257454_0" function="internal">
        <lane id=":3840257454_0_0" index="0" disallow="pedestrian tram rail_urban rail rail_electric rail_fast ship container cable_car subway aircraft wheelchair scooter drone" speed="13.89" length="12.84" shape="2550.39,2451.74 2549.15,2455.34 2548.49,2457.86 2548.12,2460.45 2547.75,2464.25"/>
    </edge>
    <edge id=":3840257454_1" function="internal">
        <lane id=":3840257454_1_0" index="0" disallow="pedestrian tram rail_urban rail rail_electric rail_fast ship container cable_car subway aircraft wheelchair scooter drone" speed="8.77" length="3.49" shape="2550.39,2451.74 2548.80,2454.64 2548.66,2454.76"/>
    </edge>
    <edge id=":3840257454_2" function="internal">
        <lane id=":3840257454_2_0" index="0" disallow="pedestrian tram rail_urban rail rail_electric rail_fast ship container cable_car subway aircraft wheelchair scooter drone" speed="3.65" length="1.44" shape="2550.39,2451.74 2549.23,2452.60"/>
    </edge>
    <edge id=":3840257454_9" function="internal">
        <lane id=":3840257454_9_0" index="0" disallow="pedestrian tram rail_urban rail rail_electric rail_fast ship container cable_car subway aircraft wheelchair scooter drone" speed="8.77" length="10.10" shape="2548.66,2454.76 2546.44,2456.62 2543.31,2457.70 2539.42,2457.87"/>
    </edge>
    <edge id=":3840257454_10" function="internal">
        <lane id=":3840257454_10_0" index="0" disallow="pedestrian tram rail_urban rail rail_electric rail_fast ship container cable_car subway aircraft wheelchair scooter drone" speed="3.65" length="3.23" shape="2549.23,2452.60 2548.34,2452.70 2547.73,2452.05 2547.38,2450.65"/>
    </edge>
    <edge id=":3840257454_3" function="internal">
        <lane id=":3840257454_3_0" index="0" disallow="pedestrian tram rail_urban rail rail_electric rail_fast ship container cable_car subway aircraft wheelchair scooter drone" speed="7.40" length="9.42" shape="2539.64,2454.67 2542.43,2454.58 2544.64,2453.87 2546.30,2452.57 2547.38,2450.65"/>
    </edge>
    <edge id=":3840257454_4" function="internal">
        <lane id=":3840257454_4_0" index="0" disallow="pedestrian tram rail_urban rail rail_electric rail_fast ship container cable_car subway aircraft wheelchair scooter drone" speed="7.97" length="14.41" shape="2539.64,2454.67 2543.52,2455.50 2546.16,2457.37 2547.57,2460.28 2547.75,2464.25"/>
    </edge>
    <edge id=":3840257454_5" function="internal">
        <lane id=":3840257454_5_0" index="0" disallow="pedestrian tram rail_urban rail rail_electric rail_fast ship container cable_car subway aircraft wheelchair scooter drone" speed="3.65" length="4.67" shape="2539.64,2454.67 2540.78,2455.55 2541.13,2456.38 2540.67,2457.15 2539.42,2457.87"/>
    </edge>
    <edge id=":3840257454_6" function="internal">
        <lane id=":3840257454_6_0" index="0" disallow="pedestrian tram rail_urban rail rail_electric rail_fast ship container cable_car subway aircraft wheelchair scooter drone" speed="6.47" length="4.85" shape="2544.57,2463.93 2544.45,2461.42 2543.56,2459.57 2543.33,2459.41"/>
    </edge>
    <edge id=":3840257454_7" function="internal">
        <lane id=":3840257454_7_0" index="0" disallow="pedestrian tram rail_urban rail rail_electric rail_fast ship container cable_car subway aircraft wheelchair scooter drone" speed="13.89" length="13.64" shape="2544.57,2463.93 2544.96,2459.91 2545.36,2457.15 2546.06,2454.47 2547.38,2450.65"/>
    </edge>
    <edge id=":3840257454_8" function="internal">