<?xml version="1.0" encoding="UTF-8"?>

<!-- generated on 2025-03-26 17:10:49 by Eclipse SUMO polyconvert Version 1.22.0
<polyconvertConfiguration xmlns:xsi="http://www.w3.org/2001/XMLSchema-instance" xsi:noNamespaceSchemaLocation="http://sumo.dlr.de/xsd/polyconvertConfiguration.xsd">

    <input>
        <net-file value="osm.net.xml"/>
        <osm-files value="osm_bbox.osm.xml"/>
        <osm.keep-full-type value="true"/>
        <type-file value="/usr/share/sumo/data/typemap/osmPolyconvert.typ.xml"/>
    </input>

    <output>
        <output-file value="osm.poly.xml"/>
    </output>

    <report>
        <verbose value="true"/>
    </report>

</polyconvertConfiguration>
-->

<additional xmlns:xsi="http://www.w3.org/2001/XMLSchema-instance" xsi:noNamespaceSchemaLocation="http://sumo.dlr.de/xsd/additional_file.xsd">
    <location netOffset="-704899.76,-1203871.70" convBoundary="-23938.81,-3099.29,8003.48,24112.48" origBoundary="76.655931,10.856934,76.948036,11.103402" projParameter="+proj=utm +zone=43 +ellps=WGS84 +datum=WGS84 +units=m +no_defs"/>

    <poly id="1080744354" type="amenity.restaurant" color="237,199,199" fill="1" layer="-1.00" shape="2538.686395,2259.748833 2561.609510,2265.822360 2569.627700,2232.108092 2548.090780,2224.671430 2538.686395,2259.748833"/>
    <poly id="1080744354#1" type="building.yes" color="255,230,230" fill="1" layer="-1.00" shape="2538.686395,2259.748833 2561.609510,2265.822360 2569.627700,2232.108092 2548.090780,2224.671430 2538.686395,2259.748833"/>
    <poly id="1154044397" type="natural.wood" color="140,196,107" fill="1" layer="-4.00" shape="-13611.683782,22968.443331 -13418.068922,23501.868907 -12859.287059,24018.105332 -12206.922006,24112.480723 -11370.828137,23951.503294 -11125.718927,23590.890085 -10441.899014,23504.450156 -10196.053031,23023.143277 -9857.218188,22809.908480 -9146.055868,22652.258826 -6178.579618,21913.796515 -6053.301335,21441.254122 -6207.707247,21231.137684 -6284.041104,20940.430833 -6261.306456,20917.924111 -6288.257466,20850.575955 -6209.345916,20833.434296 -6184.046976,20892.143548 -6131.755306,20884.154504 -6129.387077,20839.873848 -6113.309307,20830.292084 -6112.365009,20790.151255 -6084.775350,20761.766757 -6055.043459,20756.582807 -6025.755761,20775.833718 -5899.672016,20778.561793 -5738.298120,20808.908491 -5634.588775,20926.995856 -5563.495184,20900.028438 -5557.272292,20849.166824 -5529.537167,20823.881182 -5468.887592,20894.733226 -5413.622116,20879.406780 -5401.415680,20816.844217 -5355.982070,20797.541416 -5288.400643,20700.072151 -5275.907827,20482.013187 -4958.168329,20506.341334 -4926.043295,20408.655006 -4621.304554,20516.242622 -4513.134100,20548.226484 -4448.432743,20601.482564 -4494.809629,20452.413611 -4384.286710,20421.774722 -4348.974124,20447.436502 -4208.724535,20389.578542 -4008.838724,20245.942414 -3904.058081,20189.813981 -3887.854468,20117.485522 -3610.017710,20115.283899 -3590.569886,20156.513570 -3264.615496,20019.534506 -3303.316927,19905.745852 -3174.946413,19857.597776 -3176.089720,19724.471132 -2980.795338,19688.486558 -2953.544950,19424.362982 -2441.047775,19394.263216 -1862.907983,19264.736810 -1793.321173,19163.368776 -1426.195887,19063.855228 -1114.828662,19057.966132 -145.300141,19361.610558 61.139597,19469.798485 539.825172,19769.212677 1704.417335,20068.273874 2400.140403,20043.318190 2465.470627,19994.790108 2889.249600,19974.001379 3137.526244,19973.626670 3249.913226,19908.141599 3321.334038,19886.703506 3238.891439,19837.233249 2880.815289,19750.758072 2308.498746,19580.714453 2175.334819,19450.650593 1508.902291,19205.625572 1005.477762,19043.865288 835.547061,18805.910113 576.648705,18614.369894 330.393720,18604.987742 288.614461,18669.333353 -53.229155,18506.649935 -77.380854,18586.760753 -697.984121,18255.926767 -1485.178612,17887.859545 -1603.299442,17520.110588 -1634.955407,17464.997121 -1716.277769,17233.463801 -1841.525995,17093.679417 -1777.532726,16943.322512 -1686.454750,16873.406717 -1644.216772,16736.621641 -1524.251296,16457.386760 -1695.346331,16401.506073 -1820.877918,16306.746568 -1845.765014,16189.114799 -2003.385679,16184.220207 -2109.495073,16136.577857 -2018.063785,16009.877161 -1941.104163,15992.731402 -1936.466437,15881.157453 -2026.719275,15815.990161 -1945.279529,15712.725165 -1705.610539,15833.648279 -1084.059509,16021.558573 -529.612776,15909.498515 -148.445847,15776.780628 -177.201091,15649.342753 -274.915359,15517.546261 -530.673016,15449.370718 -845.776748,15416.084960 -1151.214089,15164.313754 -1375.671912,15064.257909 -1641.596085,15044.993371 -2151.736789,15002.666976 -2570.003608,15080.351270 -2946.879963,15158.306991 -3112.046600,15098.544584 -3477.953023,14994.479696 -3676.678364,14944.304567 -4051.259865,14969.417822 -4413.523387,14914.328174 -4432.783547,14839.813107 -4758.252413,14890.690697 -5222.809995,15128.678364 -5417.066810,15315.449396 -5565.378854,15075.679719 -5918.342588,15112.694040 -6116.639471,14990.098417 -6513.822977,15169.769098 -6743.307699,14992.173192 -6773.237528,14727.672460 -7090.477237,14721.838154 -7897.080519,14774.024704 -8828.517996,14875.042900 -9168.770562,14918.694964 -9168.960917,14950.531709 -9301.273046,14938.667300 -9372.306037,14934.083452 -9393.353058,14957.498727 -9410.437562,15018.306765 -9490.186139,15073.209395 -9780.803595,15204.380219 -9821.140253,15193.066235 -9907.818711,15241.003295 -10159.570289,15164.744271 -10196.571226,15059.309202 -10278.750918,15054.672055 -10346.119045,14900.603241 -10309.734468,14874.513014 -10281.381012,14792.996498 -10314.320667,14708.350055 -10492.955430,14754.359546 -10633.970617,14801.975934 -10722.061070,14854.066200 -10858.408319,14818.643492 -10855.178458,14743.902879 -10808.668401,14654.185853 -10746.907323,14578.409419 -10657.368171,14518.030761 -10528.484449,14402.496234 -10380.165983,14299.544848 -10290.172887,14163.015856 -10278.203006,14024.640591 -10479.820378,13950.066409 -10714.078269,13977.749135 -10991.034301,14154.711127 -11650.859636,14512.152855 -12176.510728,14331.847563 -12229.728865,14377.221878 -12314.729069,14378.104731 -12597.399828,14343.212579 -12872.900750,14276.527712 -13144.400715,14237.557651 -13359.507989,14327.673387 -13519.609169,14541.323202 -13698.229391,14585.966869 -13789.675600,14496.824438 -13892.334073,14418.701316 -14018.610622,14329.356582 -14207.765396,14268.728903 -15053.655771,13801.416149 -15333.698730,13232.129207 -15763.403594,12730.136768 -15807.825061,12323.292263 -15607.258053,12010.793205 -15267.517154,11896.591079 -15101.813567,11549.035728 -15279.607435,11158.952696 -15318.540110,11054.865481 -15413.252152,11021.453293 -15375.963712,10758.942727 -15404.818325,10633.752046 -15532.726338,10590.845725 -15558.944767,10461.367338 -15542.525579,10402.202158 -15502.923087,10259.529861 -15479.750606,10176.011620 -15300.121340,10171.947724 -15290.398664,10011.801978 -15267.240827,9961.248863 -15154.908146,9942.018402 -15260.278921,9751.042093 -15230.939955,8865.543814 -15214.696062,8156.046197 -15221.236944,8022.057244 -15229.253786,7834.950560 -15243.660402,7760.839871 -14997.354435,7634.458363 -14576.053412,7578.802718 -14141.910394,7325.700335 -14573.771342,7183.786358 -15311.016115,7272.479999 -16174.215184,6895.728150 -16628.562267,6681.280428 -16690.007626,6510.928176 -16824.539475,6405.403036 -16527.626147,5301.922862 -16163.711124,5059.995254 -15636.522518,4900.345874 -15180.710885,4949.434047 -14967.738390,4520.740620 -14870.831102,3940.315710 -14189.382120,3398.114730 -13953.597662,3074.115647 -13226.681404,2764.575466 -12466.480999,2768.989827 -11483.451673,2670.141136 -11072.547864,2405.281001 -10875.614653,2273.610051 -9919.072982,2215.900894 -8442.866884,2928.094163 -8093.626110,3729.534701 -6908.488342,4663.866151 -6155.670066,4641.849385 -5656.463688,4135.998952 -5159.260503,3964.078709 -5001.625320,4362.579874 -5309.264849,4949.086413 -6122.992052,5602.125379 -6120.681093,5664.930673 -6019.495456,5946.575161 -4981.945381,6398.075767 -4628.709441,6209.409946 -4624.654915,5541.579626 -4234.265527,4510.351162 -3861.323761,3717.518958 -3443.255949,3402.010830 -2771.529229,3485.630629 -1923.156036,3474.920963 -1407.462138,2905.599627 -560.148570,3069.853501 -467.652990,3642.920119 392.286663,4347.961264 2041.316504,4278.730127 2407.837398,4535.468368 2723.905136,4761.327035 3149.077830,4796.761183 4231.319920,4721.896371 4621.460607,4582.273510 4944.007984,4516.105496 5135.457048,4477.207119 5322.098152,4487.798344 5407.042342,4494.180538 5653.971505,4492.534414 5883.662480,4524.622740 5898.566621,4709.297975 6452.302570,4863.586522 6906.734893,4899.235109 7193.665980,4851.977814 7138.067198,4789.422409 6756.232972,4734.598690 6671.160951,4642.404732 6912.797097,4467.183333 7150.073309,4458.892649 7733.250055,4456.092393 8003.479161,4444.734101 7992.562017,4094.406784 7957.056560,3979.616297 7846.078549,3818.493137 7558.170649,3502.385199 7385.361916,3219.756144 7434.949189,3193.887534 7831.092954,3075.311752 7831.640455,2990.204492 7656.979014,2995.630915 7687.367254,2881.242653 7787.132823,2737.849658 7533.839831,2674.023570 7105.967316,2602.530776 6944.689278,2575.310622 7066.484526,2477.936699 7333.351913,2484.991185 7463.170824,2481.885669 7606.077416,2410.780628 7656.367044,2296.210357 7510.337093,2228.660000 7253.853700,2148.453676 7134.614886,2245.898906 6896.840988,2329.486480 6677.450212,2115.301844 6286.335641,1921.452736 5978.241903,1854.502678 5322.569523,1754.900522 4810.045286,1615.793491 4472.942696,1550.079773 4209.712556,1563.794074 3829.176176,1769.015165 3690.103267,1975.749635 3465.837723,1942.287105 3620.429437,2130.515504 3659.170227,2217.007954 3805.720869,2296.369736 3978.743249,2351.283847 4187.792293,2338.764190 4149.493480,2520.002622 4095.162681,2544.263858 4082.047696,2661.052426 3995.348093,2663.580354 3948.748743,2689.439441 3998.828008,2846.620431 4041.924981,2885.337214 4031.845866,3011.382706 3868.972827,3065.714152 3802.856994,3240.614786 3564.676562,3211.432138 3332.926381,3143.836305 3083.744909,3139.192421 2856.099303,3157.752317 2661.864611,3030.435244 2689.397155,2836.837899 2608.685676,2873.237881 2494.071601,2884.821098 2383.033733,2819.527643 2343.790356,2659.353876 2352.552478,2496.383279 2312.729699,2472.237589 2271.338347,2447.141774 2214.501479,2412.667415 2154.407599,2376.225693 2000.962505,2283.497752 2003.149697,2182.007913 1860.733054,2184.193296 1859.670480,2105.760735 1491.653403,2045.017579 1159.551018,1933.756338 826.515589,1722.527922 782.592107,1816.069051 640.327663,1793.656837 602.774550,1858.020358 576.287194,1887.073221 556.034567,1906.938284 410.466530,1918.337033 76.256154,1896.274905 -222.733712,1937.481582 -408.621485,1458.049839 -429.940501,1401.021658 -457.618840,1371.622567 -738.507466,1237.632774 -976.655024,1199.259783 -1029.619327,1254.292309 -1100.904116,1267.693204 -1193.537610,1228.679835 -1256.495066,1146.781523 -1428.838316,979.624739 -1465.395954,882.511828 -1587.308930,823.329502 -1538.623763,708.276109 -1607.667923,609.426381 -1727.777952,505.650550 -1884.071883,498.541753 -2019.889775,433.114242 -2351.488376,487.992896 -2564.189324,339.049718 -2548.378045,249.438198 -2626.935908,221.777471 -2395.650273,115.537732 -2238.958408,59.588305 -1692.881942,-135.469545 -1693.982172,-209.298499 -1594.881929,-214.841966 -1666.806187,-349.087716 -1688.579100,-586.065062 -1715.855272,-681.593645 -1701.114951,-813.770402 -1717.273096,-955.362780 -1992.901258,-1195.441749 -2077.013892,-1617.370837 -2074.671974,-1746.547787 -2001.229708,-2112.155793 -2104.588041,-2171.242818 -2165.950398,-2516.134516 -2221.131436,-2607.219135 -2240.885661,-2667.321988 -2232.740393,-2733.416632 -2269.034239,-2875.141869 -2385.520734,-3066.573931 -2508.276160,-2991.951053 -2557.157524,-2844.594099 -2618.117252,-2699.810847 -2650.854528,-2579.901842 -2734.903997,-2710.832063 -2956.151459,-2913.165091 -3212.000883,-3099.289057 -3283.048065,-2872.082653 -3501.872382,-2525.797271 -3533.160666,-2216.839730 -3637.093568,-1925.248505 -3867.615692,-1948.172859 -4092.337898,-1904.927832 -4177.707816,-1868.527856 -4249.349815,-1796.677399 -4445.027948,-1691.735291 -4641.450244,-1720.610458 -4575.131163,-1423.366353 -4620.881132,-1282.151185 -4654.850432,-1232.176000 -4683.358483,-1190.243578 -4703.932036,-1115.008970 -4712.527033,-973.569614 -4700.992399,-832.008790 -4690.256570,-817.208558 -4630.374512,-734.684823 -4552.257241,-597.334898 -4530.354340,-380.352381 -4514.037650,-335.549587 -4465.403043,-197.846335 -4430.474821,-1.405615 -4560.519263,42.623107 -4614.623036,60.936767 -4649.180150,72.631418 -4746.475787,35.127769 -4836.234678,31.510550 -4921.435681,39.050087 -5031.382972,48.785908 -5163.661867,129.984836 -5197.617713,150.832427 -5323.448608,225.433138 -5571.680226,60.909852 -5759.766387,87.723564 -5768.433611,88.954759 -5964.872666,64.709846 -6022.682546,-24.403133 -6046.788141,-61.563104 -6063.028318,-86.595547 -6195.557071,-185.824800 -6314.562201,-217.291668 -6362.601777,-203.563084 -6419.995048,-187.169042 -6631.019870,-103.847373 -6661.153987,-125.853953 -6746.189488,-187.947403 -6822.123962,-243.404010 -6789.893388,-456.983807 -6861.966029,-569.676761 -6838.830883,-613.324099 -6816.482134,-737.677260 -6889.527799,-685.665932 -6930.529036,-695.236360 -6980.814247,-721.179341 -7014.579418,-763.340900 -7050.639931,-814.830735 -7138.743599,-795.543097 -7255.685910,-858.013019 -7320.311313,-840.919209 -7384.497000,-747.071080 -7393.855826,-704.989761 -7427.426225,-662.388839 -7516.008896,-680.073990 -7595.535499,-650.390784 -7682.175625,-647.211157 -7766.483962,-668.410203 -7807.623456,-616.074740 -7882.746762,-545.267681 -7990.812586,-533.707530 -8332.062843,-529.171710 -8549.318108,-517.393858 -8680.720469,-462.693462 -8804.835941,-395.769808 -9080.519955,-404.611482 -9122.257518,-296.833564 -9114.622627,-143.629534 -9126.779088,-55.113601 -9147.047584,-14.899766 -9304.653976,34.006076 -9400.970148,128.408537 -9452.355297,162.929911 -9460.660676,178.877150 -9480.218648,206.229739 -9514.261543,242.446413 -9556.352025,300.983812 -9660.833857,387.893685 -9949.091574,423.056542 -10106.785753,457.783213 -10149.232877,556.774069 -10273.969663,583.674921 -10377.604012,586.340821 -10725.478448,444.063428 -10879.362061,511.704193 -11002.622551,495.738872 -11302.363810,290.750062 -11680.256358,185.864943 -11840.575751,328.142732 -11909.852803,418.460781 -11896.219094,499.283565 -11922.700366,615.681230 -11996.473926,661.536096 -12172.033023,665.061018 -12269.699501,749.152332 -12367.789919,872.412749 -12447.517604,896.994351 -12579.843434,906.060159 -12758.791842,877.852934 -12933.069058,877.473099 -13089.249450,889.997914 -13359.539377,1057.143223 -13642.795894,743.785750 -13978.496452,760.821075 -14179.091192,779.643902 -14627.154854,612.385923 -14703.187347,681.176025 -14774.673780,874.241839 -14798.270400,981.353464 -14940.344348,1127.354466 -15209.383572,1248.402414 -15373.064004,1311.337641 -15636.898316,1352.539258 -15756.265627,1490.199213 -16074.983869,1596.975989 -16316.874488,1763.430222 -16620.304057,1989.491792 -16791.083240,2090.833092 -16961.614569,2152.585654 -17131.989618,2171.518948 -17474.995942,2534.497507 -17759.183582,2494.658458 -18181.741206,2709.604436 -18602.089106,2676.979782 -19125.253665,2735.154089 -19606.009670,2715.565746 -20206.080416,3046.077376 -20807.764412,3252.475736 -21240.283958,3413.220152 -21606.965395,3546.359466 -21809.179852,3633.798984 -22109.873706,3860.470738 -22660.867281,4253.015893 -22940.845351,4499.696757 -23185.028290,4778.024731 -23323.466109,4885.335659 -23466.134366,4925.180786 -23569.840650,4918.969533 -23710.599691,5437.508335 -23938.812328,5849.784727 -23631.508719,6117.405568 -23493.451058,6197.399479 -23375.571471,6251.332278 -22979.515100,6354.408705 -22876.866970,6676.207279 -22857.942427,6804.317926 -23033.801648,7062.179929 -23117.023149,7185.899397 -23059.110607,7397.619222 -22938.822364,7701.219516 -22794.874273,7967.673481 -22707.935409,8189.444314 -22786.987895,9039.333101 -22626.332716,9279.499368 -22359.262237,9495.589638 -22028.755856,9790.043056 -21975.624179,9952.924674 -20665.361126,11473.691692 -20724.298116,11819.364835 -20495.372185,12813.243260 -20438.831915,13601.089870 -20188.088550,14106.526620 -19942.737497,14446.770692 -19836.189183,14975.546355 -19660.003978,15201.940934 -18996.208660,15760.473876 -18493.656408,15991.133591 -18073.084187,16409.631524 -17983.385112,16959.684048 -17792.300952,16976.906022 -17780.988041,16989.813836 -17778.860125,16992.248609 -17653.799858,17134.935390 -17515.891720,17192.242071 -17169.876702,17135.698869 -16754.617761,17101.383296 -16581.024751,17146.233523 -16335.778507,17194.938518 -16102.850702,17036.004296 -15629.240840,16908.896381 -15332.933644,16934.342155 -15170.806424,17032.331582 -15056.909076,17046.356211 -14597.181607,16911.615410 -14407.734809,16806.953146 -14199.986728,16674.997394 -13829.388718,16498.860098 -13801.752937,16372.015834 -13605.768050,16402.388414 -13518.264387,16385.422110 -13220.048171,16246.622677 -12778.561843,16149.475789 -12458.856120,16068.609367 -12185.066263,16063.174854 -11906.742858,15887.729848 -11709.148971,16127.268247 -11111.488109,16395.870651 -10940.816059,16423.012107 -10619.796992,16471.402449 -10398.775709,16479.774451 -10100.238785,16513.810033 -9921.150658,16635.934270 -9800.564425,16626.409892 -9629.076003,16655.731683 -9441.189624,16693.272348 -9163.990438,16813.742488 -9075.428627,16928.958138 -8959.666197,17277.325165 -9006.086482,17486.427285 -8602.650833,17891.902216 -8421.912535,18218.936633 -8272.826032,18478.975099 -8159.854683,18703.938710 -8435.720088,18955.045370 -8618.554031,18911.862915 -8773.792240,18828.092988 -8957.808503,18634.067777 -9037.743695,18509.986224 -9083.948916,18350.087705 -9085.944839,18245.601192 -9138.898313,18110.210151 -9317.099712,17955.030234 -9520.842957,17690.478671 -9742.676634,17599.844893 -9890.766619,17538.194191 -10006.001017,17481.010377 -10131.206459,17463.028281 -10349.550716,17442.954174 -10397.984035,17468.640398 -10602.366319,17392.332249 -10726.707327,17374.114309 -10827.537669,17393.792588 -10921.340813,17448.392705 -11015.128368,17388.109923 -11224.832656,17438.770820 -11539.944863,17500.003973 -11738.655637,17586.132611 -11844.575011,17642.510808 -12004.968011,17720.802866 -12151.189503,17856.968991 -12292.741521,17926.092091 -12401.384966,18011.173550 -12426.684546,18176.439649 -12420.981800,18295.316059 -12481.041976,18391.967666 -12513.868849,18512.497513 -12655.037402,18478.179988 -12789.921652,18553.206972 -12886.293877,18516.355408 -12985.654353,18602.975245 -13163.902617,18652.814133 -13354.968437,18710.145279 -13606.075595,18813.332559 -13728.162399,18769.452016 -13860.554692,18751.806668 -13951.389996,18801.409183 -14113.342967,18743.004457 -14158.507740,18769.444703 -14203.128308,18857.969547 -14243.898428,18932.755478 -14320.527037,18926.256720 -14345.429113,18974.652406 -14267.555402,19061.647340 -14186.775487,19152.387501 -14185.829687,19310.207193 -14301.208958,19367.875047 -14464.923351,19547.941248 -14483.965104,19708.121963 -14491.031242,19771.102302 -14533.233942,19885.637683 -14568.679411,19988.243189 -14520.267816,20051.016518 -14428.706050,20059.615816 -14391.516062,20116.648888 -14420.659304,20215.906070 -14490.807516,20292.102223 -14684.901873,20344.432535 -14725.683562,20445.967085 -14714.699898,20610.327545 -14664.679020,20741.662892 -14597.012380,20766.461429 -14411.374095,20670.563645 -14327.089036,20645.148768 -14303.295073,20746.795268 -14304.346750,20891.052072 -14253.282799,21000.623970 -14144.503990,21003.760972 -14021.250110,20869.412682 -13923.161397,20867.686681 -13813.821883,21047.271523 -13762.460746,21243.652066 -13771.115504,21340.595459 -13741.597336,21399.232981 -13633.095916,21402.901272 -13579.031822,21352.819059 -13489.809632,21249.512617 -13360.963158,21244.064303 -13267.527351,21288.310211 -13247.953449,21432.379422 -13295.478600,21572.524804 -13250.256651,21856.982138 -13336.196471,22117.381063 -13404.776366,22194.513190 -13450.130348,22288.995045 -13441.075941,22410.269222 -13455.786144,22574.225785 -13494.247067,22680.164503 -13555.100933,22930.013895 -13611.683782,22968.443331"/>
    <poly id="1210976885" type="leisure.sports_centre" color="207,245,201" fill="1" layer="-2.00" shape="2624.884628,2361.605106 2618.634277,2448.156716 2668.492181,2451.710970 2674.720798,2365.159211 2624.884628,2361.605106"/>
    <poly id="1210976885#1" type="sport.swimming" color="79,230,125" fill="1" layer="-2.00" shape="2624.884628,2361.605106 2618.634277,2448.156716 2668.492181,2451.710970 2674.720798,2365.159211 2624.884628,2361.605106"/>
    <poly id="1256941484" type="building.yes" color="255,230,230" fill="1" layer="-1.00" shape="2672.454855,2477.114571 2619.294546,2473.628094 2614.278594,2494.118665 2639.335591,2498.136865 2638.411576,2505.996928 2591.122027,2500.887854 2589.507705,2512.471848 2585.466141,2525.788586 2584.491380,2539.998543 2582.875741,2551.792726 2685.150432,2564.017402 2686.568093,2547.188266 2687.112367,2531.891420 2689.384047,2520.101351 2690.789317,2506.989338 2644.562914,2506.699303 2643.740432,2498.374697 2675.424002,2500.542709 2672.454855,2477.114571"/>
    <poly id="1256941484#1" type="tourism.hostel" color="207,245,201" fill="1" layer="-2.00" shape="2672.454855,2477.114571 2619.294546,2473.628094 2614.278594,2494.118665 2639.335591,2498.136865 2638.411576,2505.996928 2591.122027,2500.887854 2589.507705,2512.471848 2585.466141,2525.788586 2584.491380,2539.998543 2582.875741,2551.792726 2685.150432,2564.017402 2686.568093,2547.188266 2687.112367,2531.891420 2689.384047,2520.101351 2690.789317,2506.989338 2644.562914,2506.699303 2643.740432,2498.374697 2675.424002,2500.542709 2672.454855,2477.114571"/>
    <poly id="128964693" type="amenity.university" color="237,199,199" fill="1" layer="-2.00" shape="2154.407599,2376.225693 2000.962505,2283.497752 2003.149697,2182.007913 2008.661137,2045.480046 2196.261920,2093.273183 2201.185832,2055.999345 2205.942019,2014.077969 2219.470860,1913.920204 2164.405759,1901.926275 2108.304430,1886.031768 2105.608656,1867.760865 2065.775763,1864.314557 2077.024830,1761.465295 2113.245322,1760.353151 2113.723742,1783.511120 2173.375148,1780.764430 2239.078820,1778.852256 2241.385019,1761.519802 2244.367592,1739.191076 2249.036600,1704.216756 2256.321631,1649.577613 2403.266752,1600.381690 2620.263954,1604.075421 2769.773298,1602.955145 2775.764259,1435.751931 2837.120007,1440.340774 2832.606969,1608.947256 3180.914257,1626.324175 3219.503142,1638.138754 3256.855379,1667.513848 3291.831077,1702.704317 3322.101535,1740.188499 3347.240820,1776.412434 3464.939493,1946.020791 3457.008644,1969.181327 3451.081737,2122.125082 3263.425486,2116.286587 3234.509452,2334.623578 3226.884074,2363.140604 3263.890761,2447.287242 3265.717156,2528.889315 3260.146666,2668.714354 3217.291338,2768.676636 2985.195671,2741.572754 2872.451406,2730.376515 2830.252553,2724.281209 2799.774143,2721.755494 2783.563664,2719.330455 2497.497216,2694.225602 2505.514322,2505.462189 2442.199122,2501.569373 2352.552478,2496.383279 2312.729699,2472.237589 2271.338347,2447.141774 2214.501479,2412.667415 2154.407599,2376.225693"/>
    <poly id="380702787" type="leisure.swimming_pool" color="207,245,201" fill="1" layer="-2.00" shape="2631.673798,2426.222955 2656.548482,2427.938892 2659.984899,2378.630118 2635.121111,2376.914253 2631.673798,2426.222955"/>
    <poly id="380702789" type="building.university" color="255,230,230" fill="1" layer="-1.00" shape="2538.439038,2102.109389 2577.127253,2106.721835 2577.756017,2100.607890 2581.850610,2101.507545 2583.093531,2089.865907 2599.502931,2092.004397 2598.265415,2102.783148 2602.075736,2103.681023 2601.157242,2108.919167 2634.560884,2114.084892 2632.696454,2130.678898 2616.889179,2128.422470 2598.416345,2125.795317 2597.191591,2134.538540 2631.765162,2139.700539 2627.416618,2177.553288 2584.630224,2172.627432 2582.738419,2193.591184 2624.059697,2198.507854 2620.600377,2235.790899 2697.070757,2248.218702 2694.630528,2262.474784 2663.871067,2257.624260 2662.939794,2264.897933 2654.160242,2263.094894 2655.086062,2254.947202 2622.568177,2249.786985 2623.492184,2241.926923 2613.234802,2240.402268 2616.644692,2212.743802 2567.121536,2206.315387 2570.846753,2171.954670 2532.169549,2167.342287 2533.734841,2151.365942 2533.933816,2149.276266 2534.144696,2147.031782 2535.304293,2134.725838 2538.439038,2102.109389"/>
    <poly id="380702790" type="amenity.library" color="237,199,199" fill="1" layer="-1.00" shape="2626.280662,2219.209761 2650.004403,2223.153192 2651.848793,2209.756293 2655.659100,2210.654177 2653.812906,2224.338704 2669.926966,2226.486452 2672.068372,2212.803776 2675.581671,2213.987439 2674.034350,2227.087498 2696.588202,2231.023626 2700.555706,2206.864592 2686.488004,2204.442027 2687.401030,2200.077833 2695.932934,2194.301106 2689.819427,2187.558519 2690.440858,2182.617214 2703.923712,2184.151063 2707.597821,2159.702548 2684.730424,2156.937142 2683.518485,2163.633775 2675.906987,2162.125701 2676.836488,2153.391688 2682.144786,2149.055064 2682.229509,2147.750151 2682.303368,2146.434106 2678.088573,2142.037746 2674.461282,2141.594596 2669.282610,2140.953644 2664.065806,2144.649184 2663.974839,2146.949737 2666.590041,2150.119121 2669.386007,2152.360340 2667.998411,2160.914470 2660.375979,2159.406332 2661.004759,2153.292386 2637.858569,2149.651281 2634.784081,2172.643228 2647.379451,2174.470190 2646.171128,2180.591564 2639.687474,2185.794805 2644.627497,2193.105301 2643.710799,2198.055817 2629.648546,2196.507295 2626.280662,2219.209761"/>
    <poly id="380702790#1" type="building.yes" color="255,230,230" fill="1" layer="-1.00" shape="2626.280662,2219.209761 2650.004403,2223.153192 2651.848793,2209.756293 2655.659100,2210.654177 2653.812906,2224.338704 2669.926966,2226.486452 2672.068372,2212.803776 2675.581671,2213.987439 2674.034350,2227.087498 2696.588202,2231.023626 2700.555706,2206.864592 2686.488004,2204.442027 2687.401030,2200.077833 2695.932934,2194.301106 2689.819427,2187.558519 2690.440858,2182.617214 2703.923712,2184.151063 2707.597821,2159.702548 2684.730424,2156.937142 2683.518485,2163.633775 2675.906987,2162.125701 2676.836488,2153.391688 2682.144786,2149.055064 2682.229509,2147.750151 2682.303368,2146.434106 2678.088573,2142.037746 2674.461282,2141.594596 2669.282610,2140.953644 2664.065806,2144.649184 2663.974839,2146.949737 2666.590041,2150.119121 2669.386007,2152.360340 2667.998411,2160.914470 2660.375979,2159.406332 2661.004759,2153.292386 2637.858569,2149.651281 2634.784081,2172.643228 2647.379451,2174.470190 2646.171128,2180.591564 2639.687474,2185.794805 2644.627497,2193.105301 2643.710799,2198.055817 2629.648546,2196.507295 2626.280662,2219.209761"/>
    <poly id="380702791" type="building.yes" color="255,230,230" fill="1" layer="-1.00" shape="2693.427675,2079.483669 2788.122979,2085.321710 2795.160684,1991.838440 2698.712128,1986.564709 2693.427675,2079.483669"/>
    <poly id="380702791#1" type="tourism.hostel" color="207,245,201" fill="1" layer="-2.00" shape="2693.427675,2079.483669 2788.122979,2085.321710 2795.160684,1991.838440 2698.712128,1986.564709 2693.427675,2079.483669"/>
    <poly id="380702792" type="building.university" color="255,230,230" fill="1" layer="-1.00" shape="2768.020347,1971.267786 2794.982522,1973.184938 2796.962266,1938.226908 2769.699372,1937.181857 2768.020347,1971.267786"/>
    <poly id="380702793" type="leisure.pitch" color="207,245,201" fill="1" layer="-2.00" shape="2799.948102,1976.424397 2822.813862,1977.729522 2825.107103,1939.863860 2801.944305,1938.844515 2799.948102,1976.424397"/>
    <poly id="380702793#1" type="sport.basketball" color="79,230,125" fill="1" layer="-2.00" shape="2799.948102,1976.424397 2822.813862,1977.729522 2825.107103,1939.863860 2801.944305,1938.844515 2799.948102,1976.424397"/>
    <poly id="380702796" type="building.university" color="255,230,230" fill="1" layer="-1.00" shape="2758.837708,1890.792528 2769.397767,1891.146421 2769.366672,1896.102493 2776.407914,1896.146670 2777.078808,1881.580781 2759.488504,1881.171717 2758.837708,1890.792528"/>
    <poly id="380702797" type="building.university" color="255,230,230" fill="1" layer="-1.00" shape="2783.478448,1891.522406 2794.320907,1892.176783 2794.288004,1897.420485 2801.906922,1897.755933 2802.891257,1882.030384 2784.125536,1880.751010 2783.478448,1891.522406"/>
    <poly id="380702798" type="building.university" color="255,230,230" fill="1" layer="-1.00" shape="2828.456861,1920.070871 2841.646427,1921.315277 2842.623422,1906.762368 2829.433920,1905.506901 2828.456861,1920.070871"/>
    <poly id="380702799" type="building.university" color="255,230,230" fill="1" layer="-1.00" shape="2829.199046,1895.891593 2843.562127,1896.568081 2844.550162,1880.256209 2829.875448,1880.451751 2829.199046,1895.891593"/>
    <poly id="380702800" type="building.apartments" color="255,230,230" fill="1" layer="-1.00" shape="2783.943677,1862.683832 2809.746979,1864.593709 2810.718577,1849.155720 2784.629184,1847.531690 2783.943677,1862.683832"/>
    <poly id="380702801" type="building.apartments" color="255,230,230" fill="1" layer="-1.00" shape="2817.367710,1864.641531 2842.582403,1866.260100 2843.552212,1851.109739 2818.049554,1850.075708 2817.367710,1864.641531"/>
    <poly id="380702802" type="building.apartments" color="255,230,230" fill="1" layer="-1.00" shape="2784.975547,1839.380361 2800.508618,1840.053103 2801.848478,1814.715954 2786.302656,1814.330773 2784.975547,1839.380361"/>
    <poly id="380702803" type="building.apartments" color="255,230,230" fill="1" layer="-1.00" shape="2811.374802,1838.672021 2826.324713,1839.927460 2827.336513,1818.084189 2812.386661,1816.817688 2811.374802,1838.672021"/>